14

O -2.96075 -0.045133 0.150976
C -1.835632 0.389972 -0.186369
C -0.617437 -0.488956 -0.339396
C 0.472824 0.114889 0.452507
C 1.896707 -0.482575 0.082015
C 2.914838 0.39905 -0.117366
H -1.608356 1.493143 -0.507231
H -0.670735 -1.536364 -0.0667
H -0.496771 -0.506006 -1.4829
H 0.643201 1.255851 0.324669
H 0.322631 -0.014309 1.546215
H 1.950313 -1.562187 -0.0995
H 3.910625 0.047102 -0.458205
H 2.810573 1.57523 0.211381
