14

O -2.157298 -1.01703 -0.2823
C -1.391626 -0.301133 0.390474
C -0.780773 1.022203 -0.098528
C 0.712345 1.134735 0.183839
C 1.42748 0.025304 -0.445163
C 2.112719 -0.992523 0.160194
H -1.282718 -0.425681 1.497266
H -1.046558 1.184918 -1.171837
H -1.18453 1.87525 0.42474
H 0.872211 1.148666 1.235599
H 1.131394 2.107549 -0.145809
H 1.362395 0.000472 -1.561575
H 2.130655 -1.170029 1.265875
H 2.58297 -1.807702 -0.382329
