14

O 2.690664 -0.217134 -0.556492
C 1.853871 0.086518 0.330474
C 0.397822 -0.45776 0.489707
C -0.462057 0.760345 -0.009712
C -1.923197 0.52436 -0.22296
C -2.467935 -0.705177 -0.075275
H 2.055467 0.934372 1.068119
H 0.218057 -0.817249 1.452805
H 0.384605 -1.262293 -0.253143
H -0.061596 1.135675 -0.978829
H -0.34095 1.466101 0.826206
H -2.569879 1.28413 -0.609005
H -1.848396 -1.53883 0.289806
H -3.522917 -0.801872 -0.208912
