14

O 2.146089 0.867269 0.012895
C 1.438574 -0.058663 0.399376
C 0.569482 -0.871414 -0.523912
C -0.804556 -1.132397 0.088745
C -1.747552 0.034627 0.220043
C -1.549381 1.298343 -0.176639
H 1.467068 -0.386341 1.452655
H 1.081053 -1.827774 -0.680244
H 0.49131 -0.369641 -1.493927
H -1.310322 -1.891624 -0.520766
H -0.677364 -1.569276 1.087409
H -2.702224 -0.199769 0.691656
H -0.638104 1.633597 -0.662413
H -2.319532 2.049701 -0.02321
