14

O -2.395785 -0.799085 0.053163
C -2.012241 0.337182 -0.202971
C -0.580537 0.80194 -0.113749
C 0.364074 -0.319795 0.301413
C 1.781689 0.170564 0.394168
C 2.778613 -0.269811 -0.383497
H -2.732818 1.110495 -0.520963
H -0.30166 1.197765 -1.096891
H -0.546475 1.626944 0.606772
H 0.287135 -1.153301 -0.408154
H 0.068193 -0.718088 1.279771
H 1.998183 0.917264 1.155896
H 2.616499 -1.022248 -1.149497
H 3.787641 0.113364 -0.264419
