14

O 0.587097 -0.849266 -0.353041
C 1.865192 -0.317762 -0.27229
C 2.157874 0.842037 0.279487
C -0.395946 -0.425863 0.553852
C -1.372452 0.394748 -0.283428
C -2.776916 0.287478 -0.01739
H 2.552246 -1.131237 -0.708126
H 1.304996 1.530806 0.72752
H 3.117078 1.356847 0.169659
H -0.942552 -1.340999 0.889889
H 0.050977 0.056963 1.360128
H -1.010311 1.077576 -1.128888
H -3.390357 0.887996 -0.675294
H -3.38907 -0.35273 0.734719
