14

O -1.579619 -1.270795 0.347249
C -1.608272 -0.257676 -0.399908
C -0.836449 1.045328 -0.18037
C 0.41438 0.843236 0.640421
C 1.543722 0.364364 -0.28393
C 2.103173 -0.837661 -0.128724
H -2.294682 -0.272653 -1.248091
H -1.553637 1.675665 0.310054
H -0.591741 1.512755 -1.149589
H 0.760696 1.741993 1.116498
H 0.283248 0.167581 1.482168
H 1.860329 1.004358 -1.105369
H 2.879772 -1.209568 -0.76624
H 1.722239 -1.477688 0.613719
