14

O 0.308787 -0.588675 -1.3e-05
C 1.673295 -0.640768 1.9e-05
C 2.558423 0.362353 -8e-06
C -0.301059 0.701681 -1e-05
C -1.802207 0.588537 -1.3e-05
C -2.522653 -0.541848 2.2e-05
H 1.98762 -1.679555 -2.2e-05
H 2.2731 1.406759 1.5e-05
H 3.621895 0.143441 2.4e-05
H 0.001864 1.256649 0.895981
H 0.001877 1.256599 -0.895933
H -2.334808 1.537022 3e-06
H -3.607484 -0.511999 -1.9e-05
H -2.049151 -1.519245 -6e-06
