14

O -2.656426 -0.313333 -0.278911
C -1.456234 -0.467191 -0.176331
C -0.602757 0.421497 0.689734
C 0.614118 1.020277 -0.127636
C 1.817567 0.175197 -0.482254
C 2.153365 -0.909081 0.291898
H -0.774625 -1.173111 -0.803196
H -0.244376 -0.229419 1.520893
H -1.101825 1.267078 1.074405
H 0.258767 1.506981 -1.098654
H 0.998627 1.91203 0.39779
H 2.515776 0.375089 -1.40655
H 3.0669 -1.528987 0.067722
H 1.669649 -1.088353 1.338979
