14

O -2.420188 -0.869851 -0.165109
C -1.821594 0.090213 0.290475
C -0.645869 0.732952 -0.542555
C 0.581114 0.777641 0.360848
C 1.514045 -0.44179 0.320734
C 2.693593 -0.470164 -0.261581
H -2.292127 0.660275 1.155734
H -0.840541 1.833746 -0.64125
H -0.594157 0.13812 -1.508545
H 0.256568 0.836407 1.511154
H 1.165804 1.65652 0.055333
H 1.349595 -1.35472 1.105991
H 3.062681 0.350973 -1.030116
H 3.358099 -1.319114 -0.217837
