14

O -2.765665 -0.325642 0.264898
C -1.853664 0.358908 -0.212842
C -0.499844 -0.100536 -0.578587
C 0.475379 0.306795 0.546025
C 1.688241 -0.401566 0.269445
C 2.824928 0.086702 -0.243883
H -2.092929 1.486435 -0.63677
H -0.574184 -1.234178 -0.834277
H -0.155221 0.42811 -1.569495
H 0.559073 1.420842 0.5905
H -0.01467 0.094409 1.460235
H 1.668638 -1.42705 0.594106
H 3.659148 -0.658441 -0.376448
H 3.027945 1.116884 -0.360149
