14

O -2.361665 -0.823796 0.052128
C -1.980399 0.311622 -0.249998
C -0.600031 0.859096 -0.053935
C 0.358681 -0.275397 0.324956
C 1.797186 0.173885 0.402292
C 2.730108 -0.312747 -0.41215
H -2.709014 0.998425 -0.745663
H -0.343094 1.259626 -1.040236
H -0.625693 1.631251 0.685533
H 0.294562 -1.091846 -0.388259
H 0.064701 -0.652859 1.306811
H 2.072865 0.89969 1.171672
H 2.444704 -1.008755 -1.181369
H 3.771078 -0.030881 -0.287258
