14

O 0.594122 -0.970496 -0.243299
C 1.748426 -0.25536 -0.378319
C 2.109196 0.899517 0.192054
C -0.431588 -0.500189 0.63367
C -1.335064 0.455802 -0.090199
C -2.658808 0.299298 -0.226382
H 2.404373 -0.775674 -1.069353
H 1.47818 1.448861 0.878885
H 3.078911 1.332276 -0.034216
H -0.995891 -1.383684 0.953875
H -0.019964 -0.053183 1.545161
H -0.862054 1.329017 -0.532101
H -3.250155 1.030096 -0.769675
H -3.179352 -0.558154 0.188878
