14

O 2.467086 -0.546866 0.065229
C 1.901736 0.53614 -0.035208
C 0.37657 0.677979 -0.043198
C -0.308907 -0.692654 -0.024776
C -1.796703 -0.605966 -0.058852
C -2.555356 0.506662 0.075296
H 2.42199 1.493913 -0.089011
H 0.054868 1.254378 0.816107
H 0.143126 1.255916 -0.953445
H -0.030345 -1.175221 0.906963
H 0.098389 -1.30167 -0.863891
H -2.295977 -1.546122 -0.125663
H -3.613222 0.335913 0.074246
H -2.208978 1.545011 0.236997
