14

O -0.369693 0.182025 -0.076691
C -1.671764 -0.288474 -0.15671
C -2.692748 0.510359 0.099686
C 0.544367 -0.909275 0.110445
C 1.945644 -0.359911 0.046421
C 2.291777 0.940914 -0.050233
H -1.770115 -1.349744 -0.431131
H -3.722611 0.171796 0.083356
H -2.535823 1.568033 0.424715
H 0.479149 -1.600062 -0.741208
H 0.361274 -1.428752 1.087856
H 2.712214 -1.114591 0.037915
H 1.554104 1.744685 -0.031628
H 3.354789 1.197276 -0.067357
