14

O -2.912801 -0.20261 0.138618
C -1.880645 0.398205 -0.142441
C -0.57978 -0.291447 -0.449236
C 0.505803 0.220241 0.488906
C 1.82747 -0.431293 0.203242
C 2.918951 0.230274 -0.201156
H -1.871309 1.499312 -0.216458
H -0.717452 -1.372995 -0.339951
H -0.328969 -0.082596 -1.494953
H 0.58554 1.31179 0.407431
H 0.228248 0.010621 1.529349
H 1.889524 -1.508454 0.350747
H 3.850397 -0.297376 -0.38494
H 2.915629 1.304704 -0.356054
