14

O -1.670104 -0.858203 -0.757608
C -1.589949 -0.289863 0.32778
C -0.648664 0.84681 0.642419
C 0.451979 1.040414 -0.402122
C 1.614814 0.078156 -0.38726
C 1.84026 -0.938692 0.457394
H -2.270187 -0.571153 1.150406
H -0.225171 0.687568 1.636049
H -1.260357 1.755902 0.693543
H 0.869097 2.04344 -0.265063
H 0.009262 1.017087 -1.405225
H 2.351984 0.244286 -1.174908
H 1.162449 -1.197163 1.259067
H 2.735565 -1.543917 0.35156
