14

O 0.575936 -0.949249 -0.313895
C 1.858779 -0.260851 -0.267423
C 2.187408 0.963196 0.15367
C -0.470406 -0.555768 0.604494
C -1.402699 0.404342 -0.104355
C -2.725964 0.352203 -0.168356
H 2.723147 -0.912541 -0.691997
H 1.408161 1.812938 0.556695
H 3.367403 1.109897 0.174432
H -0.950165 -1.481666 0.873039
H -0.117837 -0.229237 1.591691
H -0.872137 1.104744 -0.913454
H -3.478231 1.091406 -0.617766
H -3.262606 -0.39283 0.44618
