14

O -2.428166 -0.783643 0.101561
C -2.027376 0.353461 -0.151368
C -0.570085 0.778066 -0.209978
C 0.360292 -0.345098 0.194497
C 1.793513 0.136656 0.450843
C 2.808239 -0.212288 -0.348034
H -2.773706 1.137032 -0.346553
H -0.34034 1.104293 -1.243817
H -0.453336 1.668139 0.452367
H 0.354278 -1.183597 -0.506652
H 0.018393 -0.789084 1.166114
H 1.930479 0.824108 1.31569
H 2.670395 -0.875639 -1.201307
H 3.831977 0.098993 -0.12997
