14

O -2.730029 -0.124789 0.311989
C -1.657757 -0.451643 -0.147742
C -0.602801 0.597655 -0.67353
C 0.430367 0.440627 0.473153
C 1.51745 -0.45762 0.067643
C 2.902879 -0.089275 -0.041788
H -1.18421 -1.514584 -0.046708
H -0.136302 0.296533 -1.575225
H -0.997926 1.635632 -0.61457
H -0.011655 -0.108937 1.454586
H 0.868824 1.521638 0.723805
H 1.227593 -1.630563 -0.134948
H 3.69741 -0.839855 -0.18963
H 3.158523 0.932811 -0.108528
