14

O 0.507853 -0.752327 -0.096866
C 1.844022 -0.487865 -0.194982
C 2.496024 0.662028 0.010486
C -0.350218 0.327248 0.272409
C -1.747373 -0.211247 0.34233
C -2.791016 0.276968 -0.341294
H 2.364103 -1.395532 -0.484204
H 2.002685 1.581704 0.29917
H 3.574084 0.700376 -0.112455
H -0.071646 0.706883 1.262491
H -0.279025 1.13451 -0.4664
H -1.897815 -1.062764 1.001872
H -3.775571 -0.170098 -0.242765
H -2.688271 1.12074 -1.016477
