14

O -0.468226 0.373802 -0.567318
C -1.342664 -0.149691 0.345767
C -2.615502 -0.395365 0.033947
C 0.63629 1.062588 0.027341
C 1.841506 0.181818 0.228525
C 1.971856 -1.100614 -0.138916
H -0.921643 -0.37794 1.316474
H -2.997276 -0.170807 -0.956403
H -3.29493 -0.827717 0.759447
H 0.347979 1.539082 0.973419
H 0.91479 1.869468 -0.66001
H 2.684948 0.663535 0.718549
H 2.891825 -1.644396 0.050315
H 1.1712 -1.634052 -0.643228
