14

O 0.607902 -0.425527 -0.212255
C 1.80298 0.259628 -0.231733
C 3.0067 -0.200398 0.241138
C -0.529539 0.52775 0.233448
C -1.811434 -0.207101 -0.288585
C -3.109908 -0.029891 0.221766
H 1.695556 1.361105 -0.651359
H 3.073019 -1.282315 0.757237
H 3.924387 0.423189 -0.182429
H -0.372398 1.547792 -0.328232
H -0.429132 0.621761 1.421756
H -1.694266 -0.91516 -1.179773
H -3.257781 0.701298 1.041105
H -3.854621 -0.821595 -0.259346
