14

O -1.693209 -0.874609 -0.738548
C -1.539593 -0.344552 0.371361
C -0.651063 0.869181 0.599398
C 0.480905 1.071071 -0.429626
C 1.650984 0.130968 -0.34478
C 1.757152 -0.97375 0.416082
H -2.151111 -0.714087 1.24318
H -0.247261 0.86758 1.607513
H -1.310691 1.749482 0.483506
H 0.917378 2.076402 -0.222582
H 0.068823 1.094114 -1.458306
H 2.494629 0.403401 -1.016728
H 0.924061 -1.371033 1.059516
H 2.625245 -1.627234 0.411694
