14

O -0.381974 0.13529 -0.003028
C -1.68717 -0.319303 0.00834
C -2.669682 0.582105 -0.032399
C 0.578145 -0.907793 0.024406
C 1.956962 -0.370406 -0.046788
C 2.25411 0.958366 0.019471
H -1.765624 -1.38583 -0.042322
H -3.717079 0.22038 -0.010587
H -2.483245 1.656985 -0.025592
H 0.367081 -1.659681 -0.772287
H 0.550505 -1.467386 0.992969
H 2.783391 -1.099856 -0.109321
H 1.506953 1.737204 0.110057
H 3.288002 1.280886 -0.013887
