14

O 0.271652 -0.547736 -0.126799
C 1.633957 -0.63227 0.022908
C 2.537229 0.321001 0.150162
C -0.29195 0.735897 -0.177482
C -1.763759 0.568824 0.06541
C -2.440811 -0.565943 0.10398
H 1.857822 -1.695791 0.022066
H 2.116915 1.358406 0.170083
H 3.600539 0.149696 0.113152
H 0.086337 1.256925 0.661163
H -0.08043 1.236112 -1.138775
H -2.384839 1.513663 0.204484
H -3.519657 -0.542883 0.322799
H -2.006432 -1.550591 -0.211414
