14

O -0.479324 0.443382 -0.615846
C -1.248878 -0.224722 0.341339
C -2.559332 -0.41188 0.077098
C 0.635263 1.105235 -0.025878
C 1.784228 0.164395 0.289172
C 1.878394 -1.100024 -0.125838
H -0.703211 -0.579709 1.246004
H -2.941882 -0.058754 -0.878424
H -3.182123 -0.971517 0.753309
H 0.338407 1.644624 0.888547
H 0.972224 1.840925 -0.758759
H 2.638506 0.531626 0.908112
H 2.699475 -1.726827 0.228904
H 1.1359 -1.601017 -0.772719
