14

O 2.495515 -0.551478 1.6e-05
C 1.908068 0.525009 -6e-06
C 0.408268 0.687134 -1.2e-05
C -0.314711 -0.657033 -2.8e-05
C -1.820339 -0.605729 -5e-06
C -2.602955 0.481208 1e-05
H 2.477247 1.470659 -4.4e-05
H 0.144807 1.270936 0.888887
H 0.144719 1.270907 -0.888815
H 0.000368 -1.235836 0.877806
H 0.000365 -1.235767 -0.877772
H -2.307761 -1.580881 6e-06
H -3.684706 0.37698 2.5e-05
H -2.209148 1.491296 2.1e-05
