14

O 1.89218 -0.94738 0.346939
C 1.804148 0.038992 -0.387651
C 0.806296 1.014365 -0.268789
C -0.395836 0.472184 0.615107
C -1.325054 -0.455184 -0.13273
C -2.701827 -0.284391 -0.192398
H 2.494413 0.105506 -1.214719
H 0.395402 1.287609 -1.262837
H 1.224735 1.865214 0.195273
H -0.110305 -0.094648 1.470515
H -0.902681 1.337409 1.088243
H -0.860212 -1.36851 -0.356496
H -3.277273 0.623201 0.157503
H -3.259445 -1.130921 -0.531854
