14

O -2.479559 -0.709948 0.186667
C -1.324803 -0.511666 -0.143439
C -0.7357 0.903278 -0.294717
C 0.56365 0.934607 0.415465
C 1.757692 0.324334 -0.195464
C 2.121469 -1.035434 0.025659
H -0.788051 -1.353449 -0.540922
H -0.74567 1.314057 -1.393721
H -1.504264 1.555431 0.167148
H 0.958725 1.957201 0.529718
H 0.527171 0.627249 1.445471
H 2.45896 1.165283 -0.804487
H 3.08597 -1.261552 -0.424266
H 1.53743 -1.795056 0.706553
