14

O -2.687536 -0.362396 0.143002
C -1.486472 -0.397122 -0.304355
C -0.550725 0.758783 -0.460411
C 0.475514 0.697717 0.646977
C 1.528478 -0.425455 0.514032
C 2.535812 -0.337945 -0.482594
H -1.050577 -1.391788 -0.888107
H -0.184953 0.665847 -1.46655
H -1.230677 1.700099 -0.437665
H -0.075677 0.570773 1.566441
H 1.017319 1.632118 0.539097
H 1.584779 -1.422684 1.499644
H 3.294789 -1.198508 -0.289571
H 2.855038 0.51081 -1.409306
