14

O 0.569565 -0.294698 -0.18655
C 1.769872 0.328693 0.039369
C 2.892815 -0.369062 0.183579
C -0.558653 0.610128 -0.139397
C -1.790308 -0.216434 -0.349416
C -2.89535 -0.177301 0.404192
H 1.736104 1.417648 0.117207
H 2.852532 -1.461523 0.11027
H 3.844897 0.116678 0.330711
H -0.469091 1.324736 -0.967898
H -0.548741 1.125434 0.817341
H -1.779848 -0.889008 -1.201495
H -3.01527 0.491987 1.25982
H -3.732119 -0.814497 0.146499
