14

O 0.554565 -0.375679 -0.121607
C 1.746846 0.299947 0.044156
C 2.984315 -0.280244 0.100353
C -0.547648 0.513328 -0.040405
C -1.798586 -0.235139 -0.366125
C -2.961758 -0.046113 0.326305
H 1.609193 1.367849 0.256896
H 3.185097 -1.329354 -0.208457
H 3.84683 0.399655 0.278213
H -0.356565 1.323212 -0.775462
H -0.598468 1.046897 0.954368
H -1.80787 -1.004721 -1.182537
H -3.047674 0.789977 1.117929
H -3.699678 -0.835246 0.069614
