14

O 2.03779 0.921567 0.036463
C 1.400989 -0.098135 0.373678
C 0.57036 -0.900501 -0.546402
C -0.801026 -1.148588 0.118393
C -1.669233 0.053821 0.208466
C -1.471792 1.310582 -0.18011
H 1.496425 -0.557308 1.369829
H 1.058584 -1.864576 -0.694455
H 0.470893 -0.466091 -1.513384
H -1.294397 -1.89176 -0.487025
H -0.628378 -1.529446 1.119134
H -2.644092 -0.131583 0.70573
H -0.624467 1.615761 -0.743389
H -2.231494 2.055082 0.025146
