14

O -0.491627 0.510798 -0.688813
C -1.151228 -0.35767 0.284087
C -2.496276 -0.38305 0.122457
C 0.606724 1.147147 -0.006617
C 1.752737 0.196082 0.264321
C 1.773233 -1.151245 -0.013009
H -0.492204 -0.948045 1.105464
H -2.983295 0.190811 -0.766454
H -3.060892 -1.140301 0.811494
H 0.393498 1.599249 0.931102
H 0.977765 2.030501 -0.622108
H 2.680519 0.668735 0.677912
H 2.61282 -1.82542 0.214176
H 0.98103 -1.602963 -0.624411
