14

O -0.522524 -1.275455 -0.231586
C -1.57394 0.89688 -0.351207
C -1.328418 -0.230856 0.330387
C 1.040621 -1.153571 0.074751
C 1.453958 0.266691 -0.220951
C 0.936027 1.396832 0.321244
H -1.577256 1.043956 -1.524981
H -2.28948 1.637735 0.191699
H -1.530685 -0.404438 1.375952
H 0.976885 -1.435754 1.210919
H 1.462715 -1.993625 -0.472429
H 2.168783 0.445079 -1.119374
H 1.313198 2.298805 -0.074149
H 0.53264 1.540093 1.310229
