14

O -0.492681 -1.327094 -0.181831
C -1.465523 0.762059 -0.352402
C -1.27617 -0.389963 0.287497
C 1.246427 -0.981087 0.086683
C 1.37574 0.408684 -0.278993
C 0.634253 1.395202 0.341687
H -1.210812 0.947421 -1.351593
H -1.996572 1.602863 0.101737
H -1.656101 -0.403312 1.326478
H 1.177759 -1.233981 1.176195
H 1.791656 -1.715388 -0.503755
H 1.901093 0.678154 -1.238813
H 0.664181 2.430018 -0.003623
H 0.349514 1.251265 1.420779
