14

O 0.370908 0.834661 -0.517188
C 1.689731 -0.892335 0.521552
C 1.525635 -0.022336 -0.491098
C -0.262505 1.048744 0.237885
C -1.530722 0.114842 0.394135
C -1.765896 -1.055497 -0.295116
H 0.949373 -1.038033 1.371282
H 2.539374 -1.585569 0.588978
H 2.103108 0.100608 -1.398577
H 0.217238 1.087717 1.334044
H -0.76647 2.092934 0.20611
H -2.243722 0.33171 1.169489
H -2.668712 -1.593827 -0.176421
H -1.035255 -1.410723 -1.036407
