14

O -0.687286 -1.021005 -0.400734
C -1.747218 1.031976 -0.203821
C -1.348261 -0.150247 0.333175
C 0.664532 -1.141088 0.240714
C 1.577339 -0.055252 -0.324458
C 1.518175 1.211114 0.260832
H -1.622396 1.195135 -1.331006
H -2.364558 1.772616 0.367196
H -1.440815 -0.414132 1.479671
H 0.449698 -0.966619 1.32782
H 1.077592 -2.159911 0.186666
H 2.072827 -0.183539 -1.344657
H 2.254061 1.950367 -0.204794
H 1.053181 1.590391 1.16309
