14

O -0.903144 -1.304757 0.312028
C -1.102587 1.046542 -0.192183
C -1.514938 -0.422144 -0.27956
C 1.742345 -0.93149 -0.051196
C 1.389416 0.34611 -0.28702
C 0.427081 1.146201 0.523793
H -1.037713 1.510324 -1.179953
H -1.820842 1.630273 0.447701
H -2.406767 -0.723441 -0.933553
H 1.323192 -1.642482 0.6857
H 2.508833 -1.370892 -0.718259
H 1.976609 0.878956 -1.071994
H 0.754788 2.199376 0.461535
H 0.403017 0.874998 1.607504
