14

O -0.420157 -0.7142 -0.693618
C -2.810893 0.870705 0.819522
C -1.96337 -0.190416 -0.542218
C 0.080771 0.277291 0.993869
C 1.617132 -0.202791 -0.244503
C 3.415317 -0.200451 -0.424268
H -2.381643 1.591195 1.887167
H -4.148962 0.930958 1.037989
H -2.39362 -0.769965 -1.742156
H -0.942956 2.025657 1.007578
H 0.453406 -0.183033 3.030104
H 1.222355 -0.783378 -1.183687
H 4.43428 -0.96815 -1.384523
H 4.057626 0.461132 0.467173
