14

O -1.258018 -1.33254 -0.342117
C -1.511784 1.00308 -0.117719
C -1.550304 -0.309148 0.314363
C 1.698188 -1.067993 0.267415
C 1.561488 0.174143 -0.367438
C 1.082815 1.388067 0.174601
H -1.499839 1.320776 -1.15787
H -1.99478 1.7466 0.58592
H -1.786076 -0.519483 1.36828
H 1.754476 -1.226295 1.38469
H 1.943527 -1.945236 -0.336827
H 1.620303 0.146155 -1.448736
H 1.096321 2.377458 -0.421405
H 0.851413 1.520374 1.244314
