14

O -1.088763 -1.299474 -0.278354
C -1.245217 1.103364 -0.126872
C -1.408381 -0.2731 0.307787
C 1.448922 -1.108111 0.249349
C 1.427865 0.117618 -0.459108
C 0.814404 1.28685 0.218759
H -1.321895 1.389462 -1.235335
H -1.632937 1.880541 0.565464
H -1.701337 -0.366061 1.417555
H 0.805088 -1.139158 1.263574
H 1.845775 -2.090112 -0.196473
H 1.781736 0.285437 -1.490983
H 1.159101 2.286267 -0.360757
H 0.890318 1.457496 1.358653
