14

O 0.008771 -1.428394 -0.137945
C -1.399472 0.441756 -0.373196
C -1.076073 -0.869438 0.210025
C 1.560961 -0.40942 0.095269
C 1.154197 0.848067 -0.245705
C -0.126915 1.347498 0.383453
H -1.233474 0.601434 -1.470012
H -2.352513 0.915812 -0.102293
H -1.797442 -1.35859 1.001216
H 1.398503 -0.772216 1.102101
H 2.20339 -0.956264 -0.509414
H 1.41262 1.272648 -1.262722
H -0.275641 2.408325 0.225893
H -0.258871 1.084643 1.441811
