14

O -0.622371 -0.913635 -0.183059
C -2.451047 0.734533 -0.315929
C -1.239583 0.207073 0.350032
C 0.725974 -1.105046 0.153621
C 1.493904 0.065822 -0.450268
C 2.078793 0.95014 0.333841
H -3.024841 0.268535 -1.371013
H -2.947242 1.496823 0.288377
H -0.562216 0.770432 1.394513
H 0.804881 -1.268925 1.292374
H 0.98488 -2.074092 -0.432538
H 1.472888 0.088237 -1.598162
H 2.52487 1.819448 -0.055351
H 1.90207 0.852866 1.428135
