14

O 0.696652 0.995431 -0.24598
C 2.033677 -0.96507 -0.245639
C 1.48592 0.171581 0.515142
C -0.658611 0.954484 0.347348
C -1.397615 -0.037996 -0.520065
C -2.128202 -1.068314 0.048077
H 1.794402 -1.143139 -1.447092
H 2.841084 -1.649656 0.147967
H 1.584821 0.594568 1.836336
H -0.614797 0.709636 1.394722
H -1.13166 2.015092 0.302542
H -1.288397 0.206876 -1.544684
H -2.53721 -1.950496 -0.606311
H -2.214566 -1.116511 1.140029
