14

O -1.120306 1.044029 -0.034153
C 1.206444 0.356075 -0.049523
C 0.046157 1.359605 -0.032686
C -1.274081 -0.803358 0.166448
C -0.127028 -1.304589 -0.337534
C 1.122403 -0.710621 0.281636
H 1.262692 0.357015 -1.238716
H 2.147696 0.948743 0.264587
H 0.484859 2.463451 0.046894
H -1.395458 -0.704251 1.234075
H -2.340211 -1.025575 -0.172998
H 0.095047 -1.517119 -1.325524
H 1.861969 -1.539741 0.005348
H 0.972383 -0.949173 1.442543
