14

O 1.053907 -0.809008 -0.005363
C -1.265611 -0.502307 0.290637
C -0.301188 -1.366266 -0.404277
C 1.439555 0.1465 0.138275
C 0.377081 1.366222 -0.015689
C -1.11423 0.88036 -0.154793
H -2.18554 -0.907745 0.06883
H -1.260463 -0.431659 1.375302
H -0.234247 -2.271826 0.320882
H 2.483074 0.268927 0.390456
H 0.599932 1.872108 -1.110489
H 0.397943 2.179612 0.767902
H -1.260124 1.019677 -1.249073
H -1.840865 1.615945 0.306899
