14

O -0.748142 -1.085148 0.273378
C -2.187124 0.806067 -0.464712
C -1.950035 -0.555791 -0.147251
C 0.441657 0.537425 0.626454
C 1.888571 -0.09828 0.386602
C 2.649152 0.254339 -0.70793
H -1.395832 1.605878 -0.349698
H -3.303274 1.086041 -0.538002
H -2.661938 -1.45646 -0.107864
H -0.018976 1.110172 -0.229699
H 0.039014 0.620992 1.629496
H 2.191159 -0.862341 1.132118
H 3.667766 -0.105266 -0.766306
H 2.461005 1.128866 -1.468831
