14

O -0.617755 0.695216 -0.178575
C -2.555865 -0.597283 -0.113317
C -1.206572 -0.406558 0.342047
C 0.633061 1.126711 0.155617
C 1.578872 0.137058 -0.44134
C 2.147219 -0.957564 0.148956
H -3.159379 0.312816 -0.7806
H -3.160767 -1.511376 0.088362
H -0.618586 -0.957208 1.074907
H 0.746402 2.14012 -0.225047
H 0.781738 1.322442 1.331415
H 1.84165 0.374253 -1.549069
H 2.878882 -1.578089 -0.442071
H 1.920541 -1.053144 1.268854
