14

O 2.24152 -0.688475 -0.024357
C 0.399307 0.78534 -0.430949
C 1.18991 -0.169918 0.365574
C -1.490777 -1.16146 -0.207102
C -1.681293 0.021924 0.376843
C -0.592223 1.11704 -0.030903
H 1.174512 1.575191 -0.636781
H 0.456696 0.290674 -1.427743
H 0.745153 -0.332538 1.357194
H -0.68711 -1.518649 -0.818492
H -2.157118 -2.129153 -0.018517
H -2.54891 0.371944 0.826989
H -0.427203 1.825314 0.947543
H -1.258831 1.770216 -0.649534
