14

O -0.522647 -1.176251 -0.325089
C -1.625574 0.867307 -0.32301
C -1.278567 -0.273426 0.340436
C 0.869716 -1.120687 0.170299
C 1.422862 0.203364 -0.248607
C 1.129767 1.387126 0.310679
H -1.285294 1.037447 -1.306554
H -2.241018 1.578077 0.229983
H -1.577511 -0.556255 1.350122
H 0.799004 -1.244143 1.290235
H 1.478009 -2.01198 -0.190421
H 1.872539 0.256054 -1.254939
H 1.435753 2.38528 -0.144828
H 0.607293 1.491884 1.269658
