14

O -1.127307 -1.348803 0.473529
C -0.938762 0.93361 -0.38678
C -1.590702 -0.417597 -0.200453
C 1.838603 -0.837556 -0.313058
C 1.540627 0.465638 -0.15348
C 0.389163 1.103261 0.572745
H -0.622191 1.126921 -1.473794
H -1.792112 1.7362 -0.054227
H -2.521489 -0.533256 -0.880335
H 1.470095 -1.572526 0.446183
H 2.500827 -1.307776 -0.98207
H 2.118888 1.117162 -0.765208
H 0.638107 2.12558 0.968482
H -0.034714 0.411244 1.467294
