14

O -1.237508 -1.320726 -0.161927
C -0.866071 0.946769 -0.327106
C -1.514106 -0.176458 0.276243
C 1.751622 -1.032064 0.089456
C 1.337 0.206253 -0.294507
C 0.51979 1.228349 0.354076
H -0.721852 0.725678 -1.474638
H -1.500221 1.925339 -0.207055
H -2.156056 0.078187 1.151037
H 1.409849 -1.566174 1.072966
H 2.248426 -1.702752 -0.670884
H 1.790102 0.728296 -1.270909
H 0.842436 2.285208 0.315233
H 0.390317 1.096741 1.412118
