14

O -0.938663 -1.158094 0.101589
C -1.244144 1.348578 -0.106438
C -1.660947 -0.026045 -0.113842
C 0.422932 -1.097149 0.333648
C 1.253802 -0.022034 -0.483645
C 2.090398 0.877907 0.134351
H -0.154951 1.715096 0.038084
H -1.96901 2.134549 -0.350922
H -2.760057 -0.37756 -0.255208
H 0.554024 -0.870415 1.519781
H 0.912538 -2.220278 0.105982
H 1.21121 -0.0784 -1.581723
H 2.78067 1.534637 -0.464948
H 2.118894 0.938831 1.246136
