14

O -0.803344 -1.263247 -0.291228
C -1.569806 0.974822 -0.188565
C -1.359767 -0.272576 0.267071
C 1.4713 -1.066806 0.255216
C 1.358646 0.163213 -0.398634
C 0.911775 1.328081 0.291506
H -1.435861 1.265399 -1.298484
H -1.8826 1.776665 0.510576
H -1.71882 -0.501574 1.288036
H 1.52847 -1.133018 1.490722
H 1.782467 -1.943856 -0.3312
H 1.357492 0.200267 -1.519077
H 0.969339 2.178789 -0.409153
H 0.6707 1.470634 1.376527
