14

O -1.207334 -1.371988 -0.417253
C -0.980183 1.056655 -0.107125
C -1.402408 -0.395293 0.304403
C 1.700168 -0.926765 0.344638
C 1.371821 0.179676 -0.366489
C 0.549842 1.316345 0.181521
H -1.155293 1.209393 -1.228933
H -1.629986 1.7858 0.41652
H -1.985036 -0.457721 1.292841
H 1.467707 -1.068234 1.403253
H 2.277085 -1.755295 -0.111306
H 1.706975 0.287359 -1.376656
H 0.909039 2.196106 -0.375608
H 0.663662 1.439832 1.273197
