14

O 0.722669 -1.044746 -0.569629
C 1.454896 1.053332 0.472759
C 1.587474 -0.079878 -0.24226
C -0.671724 -1.099239 0.463168
C -1.620855 -0.048658 0.170036
C -1.511177 1.161114 -0.403242
H 0.59298 1.305079 1.066413
H 2.324322 1.744731 0.624458
H 2.520005 -0.199284 -0.848351
H -0.993467 -2.11114 0.05209
H -0.231664 -1.097995 1.447352
H -2.500278 -0.337825 0.709498
H -2.344486 1.816043 -0.371328
H -0.597021 1.487037 -0.912753
