14

O -0.921938 -1.375073 -0.325268
C -1.367078 0.924083 -0.171032
C -1.450064 -0.438554 0.299404
C 1.487635 -0.88287 0.247054
C 1.567537 0.283116 -0.366245
C 0.754939 1.372773 0.241192
H -1.232858 0.920157 -1.27462
H -1.959398 1.702224 0.346173
H -2.053481 -0.730472 1.30204
H 1.199872 -0.914124 1.307038
H 1.855446 -1.782443 -0.17478
H 1.916565 0.314771 -1.406513
H 0.749083 2.436016 -0.160632
H 0.952437 1.461205 1.369318
