14

O 1.773947 -1.321746 -0.161139
C 1.241982 1.018816 -0.416497
C 1.733083 -0.184857 0.317999
C -2.250388 -0.972244 0.09495
C -1.627902 0.172625 -0.330194
C -0.87122 1.143988 0.412026
H 1.533734 2.018426 -0.102605
H 1.110007 0.969959 -1.51706
H 1.985307 -0.009296 1.432712
H -2.301382 -1.236738 1.170781
H -2.777496 -1.592306 -0.635579
H -1.722652 0.402575 -1.355999
H -0.457427 0.852349 1.463775
H -0.992831 2.166412 0.176964
