14

O 0.161828 1.473555 0.054904
C 1.125383 -0.80707 -0.112531
C 1.147569 0.794327 -0.083693
C -1.584106 0.458057 0.141191
C -1.116324 -0.639987 -0.398687
C 0.164395 -1.173532 0.371628
H 1.183167 -0.903006 -1.241835
H 2.071283 -1.188889 0.385332
H 2.142038 1.14756 -0.290735
H -1.522288 0.641525 1.159277
H -2.292378 1.023058 -0.414759
H -1.454849 -1.027134 -1.368363
H 0.261139 -2.364935 0.556158
H -0.108996 -0.898451 1.510524
