14

O 2.053894 0.988404 -0.068823
C 0.576835 -1.027949 -0.441881
C 1.507802 -0.192376 0.44584
C -1.544174 1.392282 -0.121894
C -1.700964 0.093184 0.113216
C -0.810233 -1.15186 0.069272
H 0.675329 -0.688753 -1.484802
H 1.032631 -2.108327 -0.311658
H 1.709172 -0.83492 1.616328
H -0.551004 1.870554 -0.497173
H -2.272537 2.169533 0.098379
H -2.654259 -0.080578 0.577456
H -1.394569 -1.975191 -0.452012
H -0.772926 -1.59241 1.05184
