14

O 0.449629 0.76852 -0.503435
C 1.954116 -0.791892 0.644238
C 1.545138 -0.073662 -0.500969
C -0.420304 0.957006 0.476738
C -1.737718 0.067177 0.332696
C -1.788452 -0.876923 -0.567367
H 1.236234 -0.826359 1.49261
H 2.825825 -1.510208 0.764058
H 2.004719 0.001329 -1.48515
H 0.149398 1.018663 1.394205
H -0.822687 1.994651 0.34694
H -2.563199 0.349006 0.990665
H -2.727224 -1.566683 -0.552297
H -0.934906 -1.112705 -1.231738
