14

O 0.153339 1.53373 0.078305
C 1.062792 -0.786368 -0.110354
C 1.1554 0.82043 -0.124003
C -1.539714 0.487081 0.087055
C -1.129512 -0.686886 -0.342681
C 0.179688 -1.320681 0.392228
H 1.431615 -1.035141 -1.160788
H 2.025639 -0.993427 0.520588
H 2.078287 1.350103 -0.301163
H -1.408622 0.839746 1.152204
H -2.316045 1.162307 -0.319037
H -1.309051 -1.039707 -1.412585
H -0.016133 -2.48985 0.292531
H 0.05746 -0.989496 1.430956
