14

O 0.350525 -1.140539 -0.403096
C 1.296065 0.772439 0.561743
C 1.357623 -0.324785 -0.078289
C -0.799158 -1.04611 0.260237
C -1.350326 0.370594 0.217175
C -0.832787 1.285994 -0.650586
H 0.31588 1.181119 0.994806
H 2.252379 1.364007 0.703902
H 2.321862 -0.741572 -0.526417
H -1.503619 -1.8827 -0.072732
H -0.828964 -1.255374 1.300566
H -1.900396 0.703025 1.118168
H -1.198448 2.224184 -0.451262
H -0.336111 0.973571 -1.532239
