14

O -1.548719 -1.31173 -0.250564
C -0.936755 1.057968 -0.228881
C -1.427826 -0.259594 0.38273
C 1.726013 -1.038268 0.204002
C 1.567903 0.191795 -0.397897
C 0.602211 1.232488 0.19662
H -1.007568 0.996332 -1.289129
H -1.496287 1.896123 0.160748
H -1.600371 -0.217383 1.505052
H 1.231175 -1.511459 1.202023
H 2.281349 -1.743714 -0.399779
H 1.981787 0.487662 -1.412107
H 0.931693 2.247303 -0.051976
H 0.672477 1.242923 1.320008
