14

O -1.476238 -0.981443 -0.582176
C -0.490584 0.888681 0.433465
C -1.434294 -0.230754 0.360683
C 1.58124 -1.084843 0.350159
C 1.585523 0.162281 -0.336486
C 0.203242 1.126839 -0.378786
H -1.093589 1.781116 0.832066
H 0.104983 0.68676 1.393473
H -2.139784 -0.171061 1.178196
H 0.672418 -1.638679 0.869372
H 2.536781 -1.563489 0.460926
H 2.523216 0.637807 -0.849189
H -0.128524 0.915546 -1.365721
H 0.766516 2.113597 -0.288761
