14

O -0.310173 -1.418534 -0.284608
C -1.413179 0.658675 -0.28194
C -1.127711 -0.651454 0.254231
C 1.417298 -0.720609 0.19053
C 1.252297 0.566372 -0.23286
C 0.263973 1.464303 0.280803
H -1.288955 0.789549 -1.392685
H -2.207813 1.218693 0.236006
H -1.465787 -0.854337 1.318823
H 1.290926 -1.011132 1.241099
H 2.123677 -1.32268 -0.339522
H 1.528193 0.713336 -1.268483
H 0.207793 2.518311 -0.051113
H -0.063399 1.426076 1.312106
