14

O -0.635382 -1.070486 -0.206671
C -1.759495 0.966633 -0.442056
C -1.362259 -0.035427 0.419984
C 0.810772 -1.195228 0.104576
C 1.504288 0.086468 -0.361454
C 1.415594 1.1546 0.394705
H -1.301381 1.179278 -1.410691
H -2.437582 1.737214 -0.013836
H -1.561079 -0.213259 1.522019
H 0.951398 -1.341992 1.170646
H 1.024923 -2.099577 -0.481448
H 1.90998 0.019358 -1.381412
H 1.964426 2.146356 0.159038
H 0.858041 1.081183 1.346074
