14

O 0.678365 0.891231 -0.35509
C 2.421151 -0.776173 -0.129263
C 1.433521 0.002094 0.323868
C -0.664323 0.977254 0.311738
C -1.689411 0.053453 -0.433464
C -2.19392 -1.033578 0.160713
H 2.81746 -0.980793 -1.18986
H 3.01785 -1.415163 0.649818
H 1.30619 0.169083 1.380088
H -0.455892 0.640786 1.35095
H -1.038975 2.018921 0.219855
H -1.927992 0.326891 -1.421655
H -2.718619 -1.784591 -0.418334
H -2.013642 -1.528025 1.218823
