14

O -1.242539 -1.32374 -0.099139
C -1.456973 1.031203 -0.417602
C -1.608151 -0.21564 0.345461
C 1.926679 -0.927726 -0.362945
C 1.381773 -0.02115 0.513929
C 0.946587 1.294616 0.082104
H -1.317725 0.901965 -1.471134
H -1.888853 1.972838 -0.047062
H -1.993744 -0.141579 1.411837
H 2.163804 -0.664026 -1.415956
H 2.197579 -1.928321 -0.098303
H 1.184833 -0.378948 1.548811
H 1.200003 1.605331 -0.935244
H 0.870863 2.152269 0.800447
