14

O -0.651301 -0.923833 -0.280717
C -2.249889 0.849017 -0.276811
C -1.37292 0.015963 0.414994
C 0.682382 -1.083252 0.150736
C 1.57358 -0.013478 -0.379175
C 1.989639 1.066363 0.270305
H -2.411418 0.810893 -1.375486
H -2.923242 1.515323 0.256136
H -1.128389 0.051059 1.549186
H 0.727444 -1.119161 1.257606
H 0.997691 -2.082142 -0.214806
H 1.889176 -0.088365 -1.402114
H 2.636571 1.838793 -0.203428
H 1.652984 1.324729 1.285267
