14

O -0.453731 -1.293646 -0.122543
C 1.475115 0.050423 0.452902
C 0.875383 -1.031138 -0.123068
C -1.368032 -0.348325 0.105414
C -0.866409 1.099676 0.146362
C 0.282832 1.445381 -0.513645
H 1.195693 0.528976 1.383769
H 2.531456 0.135211 0.311341
H 1.3506 -1.715329 -0.79977
H -2.127978 -0.497213 -0.714457
H -1.84582 -0.517754 1.109763
H -1.283302 1.76402 0.948273
H 0.751127 2.42107 -0.293369
H 0.61957 1.068725 -1.468615
