14

O 1.081381 -0.803066 0.009788
C -1.278369 -0.467597 0.28934
C -0.313412 -1.394592 -0.369621
C 1.351047 0.181766 0.118566
C 0.400733 1.358072 -0.00961
C -1.080096 0.862995 -0.188538
H -2.248286 -0.834514 0.006259
H -1.227007 -0.545887 1.432948
H -0.228566 -2.382046 0.035083
H 2.425845 0.423729 0.196444
H 0.694341 1.899451 -0.942461
H 0.512236 2.095813 0.855483
H -1.29658 0.906507 -1.247147
H -1.748336 1.582024 0.381389
