14

O -1.032015 -1.443123 -0.238404
C -0.976441 1.005117 -0.196738
C -1.435414 -0.399698 0.205916
C 1.629674 -0.906895 0.195969
C 1.451791 0.32393 -0.290591
C 0.439706 1.310166 0.250237
H -1.109213 1.071018 -1.280351
H -1.789269 1.696355 0.230215
H -2.259327 -0.387893 0.985317
H 1.259416 -1.215865 1.160295
H 2.234131 -1.644066 -0.351208
H 1.941425 0.469395 -1.291575
H 0.736569 2.3468 -0.045798
H 0.436663 1.186167 1.344855
