14

O -0.986784 -1.355214 0.270894
C -0.946964 1.014042 -0.179546
C -1.507511 -0.402696 -0.267104
C 1.790818 -0.86461 -0.051146
C 1.425237 0.401434 -0.250831
C 0.300094 1.087275 0.488243
H -0.917724 1.397527 -1.21376
H -1.73974 1.598366 0.308025
H -2.457635 -0.521664 -0.846813
H 1.31726 -1.479908 0.6976
H 2.592736 -1.311551 -0.640383
H 1.929455 0.984594 -1.030198
H 0.579493 2.130726 0.66725
H 0.231668 0.619755 1.480041
