14

O 1.191245 -1.401863 0.216771
C 0.956357 1.010749 -0.27792
C 1.723903 -0.282357 -0.130754
C -1.855131 -0.8882 -0.073236
C -1.605535 0.42326 -0.238866
C -0.494431 1.021565 0.527482
H 1.437157 1.902101 0.145436
H 0.890206 1.268588 -1.36933
H 2.886504 -0.196257 -0.409465
H -1.391384 -1.458671 0.753641
H -2.551434 -1.415981 -0.658093
H -2.198581 0.92885 -0.960761
H -0.19829 0.600886 1.459959
H -0.692092 2.07072 0.691908
