14

O -0.799817 -1.228087 -0.220985
C -1.59248 0.999956 -0.273225
C -1.389445 -0.232964 0.337895
C 1.30646 -1.121471 0.150728
C 1.475938 0.154669 -0.356708
C 1.036921 1.316397 0.277944
H -1.332491 1.221104 -1.306676
H -2.079908 1.769925 0.281752
H -1.763533 -0.453706 1.331824
H 1.138764 -1.28838 1.202736
H 1.687105 -2.052972 -0.348458
H 1.812454 0.253034 -1.414152
H 1.154432 2.272481 -0.184725
H 0.787903 1.312899 1.356053
