14

O 2.095031 0.836253 -0.032742
C 0.466131 -0.927458 -0.455707
C 1.373555 -0.048715 0.402706
C -1.36261 1.339875 -0.164283
C -1.693977 0.097189 0.224691
C -0.84273 -1.155881 0.035089
H 0.464141 -0.482932 -1.453285
H 1.011978 -1.89344 -0.526804
H 1.338516 -0.276993 1.520184
H -0.432167 1.568782 -0.668833
H -2.001806 2.212009 0.065664
H -2.620401 -0.035616 0.785167
H -1.395203 -1.832275 -0.631116
H -0.811215 -1.735215 1.000155
