14

O 0.981664 -0.907984 -0.195525
C 3.113572 0.408566 0.170339
C 1.36873 0.360151 -0.174515
C -1.241157 -0.96505 0.503562
C -2.100297 -0.151692 -0.364632
C -2.250168 1.155314 -0.05656
H 4.427823 -0.576172 0.536998
H 3.458425 1.392046 -0.126574
H 0.238421 1.541556 -0.529474
H -1.254577 -2.14422 0.327994
H -0.898474 -0.648268 1.536558
H -2.423924 -0.70943 -1.293048
H -2.878585 1.897914 -0.587238
H -1.836158 1.48098 0.947757
