14

O 0.681766 0.973578 -0.282237
C 2.1545 -0.883391 -0.175481
C 1.355333 -0.002614 0.396625
C -0.697412 1.032975 0.249133
C -1.52903 0.036543 -0.448398
C -1.95069 -1.099727 0.149505
H 2.228584 -0.855589 -1.256227
H 2.779767 -1.554805 0.438555
H 1.260859 0.070228 1.476477
H -0.631903 0.920279 1.363461
H -1.012715 2.083536 0.051747
H -1.856629 0.274809 -1.513181
H -2.523169 -1.870084 -0.345678
H -1.609024 -1.288294 1.175281
