14

O -0.895006 -1.321981 -0.137045
C -1.449322 1.04698 -0.281025
C -1.397733 -0.189263 0.325996
C 1.178301 -1.128718 0.07691
C 1.418378 0.179825 -0.373646
C 1.172945 1.327764 0.31443
H -1.260687 1.057045 -1.39727
H -1.965324 1.838099 0.215755
H -1.5525 -0.144122 1.397854
H 1.090725 -1.431495 1.163785
H 1.634991 -1.907418 -0.578199
H 1.756484 0.263219 -1.418764
H 1.322989 2.313857 -0.096052
H 0.854001 1.421191 1.315329
