14

O 1.186586 -1.364091 0.277738
C 0.874849 1.000615 -0.217633
C 1.546732 -0.338147 -0.242476
C -1.781202 -0.903367 -0.118148
C -1.555869 0.408927 -0.202309
C -0.335926 1.062685 0.493648
H 1.58194 1.642706 0.306753
H 0.841037 1.423409 -1.203796
H 2.532905 -0.247375 -0.819138
H -1.112896 -1.567896 0.459399
H -2.715484 -1.337938 -0.570667
H -2.303047 1.154189 -0.732363
H -0.266942 0.545065 1.468366
H -0.542689 2.087833 0.792081
