14

O 1.378232 -1.204788 -0.431831
C 0.965501 1.205145 0.28726
C 1.53987 -0.186743 0.610717
C -1.716143 -1.097436 -0.123034
C -1.482205 0.163975 0.202835
C -0.581907 1.061299 -0.565366
H 0.780567 1.788504 1.250309
H 1.60026 1.796952 -0.369701
H 2.295395 -0.280789 1.915689
H -1.264807 -1.703752 -0.883641
H -2.363108 -1.73646 0.538543
H -2.119158 0.54432 1.047993
H -0.965776 2.139736 -0.727577
H -0.423942 0.659076 -1.548053
