14

O 2.194163 -1.059197 -0.209331
C 0.971705 0.992228 -0.150731
C 1.509298 -0.268578 0.39094
C -2.187047 -0.997158 0.212529
C -1.58161 0.049858 -0.477156
C -0.820656 1.1323 0.150378
H 1.391943 1.872461 0.28223
H 0.980131 1.115202 -1.191519
H 1.276486 -0.539776 1.439481
H -2.34019 -0.963927 1.287188
H -2.568637 -1.885049 -0.378701
H -1.605998 0.074976 -1.608207
H -0.941373 1.176735 1.267485
H -0.922944 2.152942 -0.256268
