14

O -1.290922 0.998186 0.043624
C 1.208495 0.465807 -0.06611
C -0.144314 1.307482 -0.112519
C -1.147906 -1.053993 0.173625
C 0.030451 -1.307452 -0.390026
C 1.204686 -0.582742 0.290381
H 1.688792 0.832231 -1.057169
H 1.734053 1.198702 0.601822
H 0.191536 2.382871 -0.21513
H -1.095496 -0.802195 1.248212
H -2.249298 -1.239891 -0.115582
H 0.1328 -1.809524 -1.452461
H 2.174335 -1.05909 0.194571
H 1.078772 -0.749932 1.373272
