14

O -0.64895 -1.173407 -0.203403
C -1.582033 1.0147 -0.386142
C -1.398041 -0.102605 0.356306
C 0.731107 -1.126492 0.156879
C 1.357819 0.129757 -0.438814
C 1.490741 1.174514 0.407029
H -1.052534 1.105416 -1.339341
H -2.14276 1.845497 -0.025984
H -1.812715 -0.381505 1.28876
H 0.863233 -1.072854 1.26128
H 1.154548 -2.077184 -0.273646
H 1.501248 0.125054 -1.566969
H 1.843535 2.187976 0.149513
H 1.3475 1.094257 1.592183
