14

O 0.735655 -1.008289 -0.520479
C 1.464024 0.993669 0.591468
C 1.582031 -0.024631 -0.235911
C -0.72902 -1.103942 0.494847
C -1.68932 -0.067231 0.028983
C -1.401568 1.12859 -0.494192
H 0.630226 1.210471 1.244191
H 2.416656 1.588169 0.742848
H 2.496308 -0.167954 -0.779412
H -0.9566 -2.174712 0.333011
H -0.388352 -1.00826 1.509358
H -2.757233 -0.333999 0.218851
H -2.20304 1.859065 -0.684883
H -0.353797 1.563363 -0.625028
