14

O 0.630843 1.466471 0.243744
C 0.952943 -0.922284 -0.112105
C 1.277955 0.588131 -0.272925
C -1.700611 0.666394 -0.01432
C -1.253847 -0.553279 -0.268309
C 0.004213 -1.143498 0.430038
H 1.032738 -1.339758 -1.145969
H 1.935247 -1.272384 0.380358
H 2.220278 0.844399 -0.841234
H -1.401841 1.286212 0.795388
H -2.487587 1.09956 -0.643488
H -1.692895 -1.140195 -1.087364
H -0.27874 -2.213143 0.537214
H -0.061957 -0.786071 1.453603
