14

O -0.290741 -0.847789 -0.385597
C -1.8099 0.728421 -0.035413
C -1.326364 -0.44099 0.351713
C 0.687977 -1.020835 -0.115757
C 1.493011 0.189929 0.219001
C 1.175037 1.362764 -0.122989
H -1.359013 1.500835 -0.841971
H -2.675234 1.148547 0.50374
H -1.464869 -1.128428 1.274051
H 0.903793 -1.609845 0.931331
H 1.377936 -1.738369 -0.771028
H 2.461615 -0.047808 0.790474
H 1.705761 2.251552 0.12241
H 0.231649 1.451304 -0.733408
