14

O -0.854023 -1.045998 -0.235556
C -1.314772 1.298955 0.359413
C -1.644656 0.123852 -0.304215
C 0.257278 -0.926645 0.529677
C 1.534683 -0.552215 -0.231709
C 1.980728 0.937152 -0.202766
H -0.471197 1.435421 1.098053
H -2.011922 2.222555 0.133924
H -2.51158 -0.120729 -1.069085
H -0.084904 -0.286334 1.420031
H 0.473977 -1.983032 1.053425
H 1.915315 -1.442218 -1.128193
H 2.674032 1.304746 -0.958192
H 1.545659 2.039691 0.653275
