14

O -0.480183 -1.346128 -0.153059
C -1.394739 0.810539 -0.322109
C -1.384113 -0.436823 0.245032
C 1.18986 -0.988883 0.100467
C 1.32117 0.38559 -0.305455
C 0.766337 1.437684 0.37229
H -0.88291 1.000265 -1.282384
H -2.052618 1.65457 0.020896
H -1.798017 -0.647538 1.214388
H 1.33321 -1.19004 1.166441
H 1.736573 -1.588196 -0.607877
H 1.61901 0.677875 -1.359394
H 0.752143 2.374616 -0.131991
H 0.273956 1.45449 1.385471
