14

O 0.466453 -0.650301 -0.139146
C 2.51939 0.602154 0.120903
C 1.874504 -0.534287 -0.14716
C -0.320505 0.388052 0.047846
C -1.701781 -0.237116 0.276322
C -2.871398 0.212553 -0.179354
H 2.089565 1.504962 0.417425
H 3.609646 0.6769 0.128827
H 2.283883 -1.466579 -0.517936
H -0.012796 0.99429 0.984925
H -0.355089 1.092004 -0.781322
H -1.651677 -1.119301 0.874914
H -3.835162 -0.325241 -0.033025
H -2.866296 1.218294 -0.663876
