14

O -1.979182 -1.306429 -0.030396
C -1.192814 0.864565 0.677202
C -1.966026 -0.068236 -0.19343
C 2.572013 -0.471656 0.474244
C 1.56357 -0.236849 -0.410326
C 0.991807 1.046114 -0.578948
H -1.406397 1.933431 0.666807
H -0.83489 0.410672 1.573741
H -2.556059 0.347571 -1.079842
H 3.038601 0.339258 1.099357
H 2.917866 -1.48529 0.683318
H 1.127729 -1.075254 -0.895682
H 0.563364 1.339667 -1.554646
H 1.40962 1.864851 0.023333
