14

O -0.703826 -1.153854 -0.193563
C -1.788131 1.043559 -0.256874
C -1.397968 -0.087713 0.379452
C 0.698611 -1.131944 0.142556
C 1.429313 0.073656 -0.423111
C 1.729548 1.17814 0.247616
H -1.353842 1.265017 -1.276912
H -2.404623 1.771451 0.19948
H -1.671333 -0.219163 1.415235
H 0.756694 -1.124246 1.207258
H 1.168085 -2.050356 -0.325207
H 1.565353 -0.058623 -1.467051
H 2.220379 2.105158 -0.188117
H 1.411953 1.322155 1.272664
