14

O -0.289427 -1.377268 -0.180525
C -1.451822 0.72481 -0.284758
C -1.300807 -0.52545 0.168856
C 1.16523 -0.86784 0.145487
C 1.342738 0.52928 -0.339187
C 0.59562 1.396231 0.358587
H -0.988205 1.051172 -1.205644
H -2.233487 1.321601 0.31165
H -1.813025 -0.777627 1.167277
H 1.163561 -0.869794 1.215045
H 1.830839 -1.607604 -0.178314
H 1.621752 0.711418 -1.371975
H 0.39415 2.421266 -0.017276
H 0.147349 1.303973 1.324337
