14

O 0.940912 -1.328499 -0.28306
C 1.316797 0.982332 -0.342722
C 1.418246 -0.316149 0.313729
C -1.585924 -0.968949 0.217015
C -1.414568 0.241069 -0.344498
C -0.712464 1.295753 0.369701
H 1.844436 1.785909 -0.015297
H 1.08351 0.854629 -1.407451
H 1.495635 -0.239441 1.488229
H -1.281997 -1.190381 1.237294
H -1.780889 -1.919712 -0.33848
H -1.537603 0.439849 -1.47211
H -0.374904 0.854525 1.369196
H -0.841575 2.402109 0.17098
