14

O 0.496077 -0.701396 -0.141934
C 2.506313 0.658944 0.066817
C 1.842017 -0.483992 -0.152458
C -0.329582 0.287657 0.150366
C -1.728938 -0.261163 0.294835
C -2.821838 0.294168 -0.236244
H 2.031201 1.611439 0.277032
H 3.595522 0.641394 0.00011
H 2.347233 -1.412301 -0.399798
H -0.05766 0.783448 1.112661
H -0.311644 1.095454 -0.599973
H -1.808441 -1.152282 0.920537
H -3.805825 -0.124735 -0.057589
H -2.77138 1.19053 -0.851409
