14

O 0.504629 0.700133 -0.753962
C 1.8646 -0.794285 0.70299
C 1.619992 -0.013474 -0.360326
C -0.563053 0.995125 0.45845
C -1.515702 -0.130651 0.508989
C -1.943036 -0.735104 -0.64263
H 1.223107 -0.903149 1.599035
H 2.870673 -1.222603 0.734924
H 2.294279 0.074881 -1.186071
H 0.139077 1.050772 1.306846
H -0.961367 1.95403 0.224404
H -1.953585 -0.382952 1.609397
H -2.697738 -1.476884 -0.425259
H -1.63309 -0.438942 -1.795172
