14

O -0.702812 -1.288173 -0.088126
C -1.595194 0.96451 -0.320838
C -1.475468 -0.221644 0.283169
C 1.227732 -1.098245 0.075161
C 1.426494 0.202215 -0.414325
C 1.182831 1.290643 0.397282
H -0.950754 1.125619 -1.261264
H -2.233548 1.886727 0.00023
H -2.135316 -0.273788 1.205778
H 1.194541 -1.152558 1.130593
H 1.455465 -1.864312 -0.552424
H 1.463965 0.49927 -1.552144
H 1.006044 2.228865 -0.191267
H 1.013363 1.166915 1.512127
