14

O -0.518 -1.407974 -0.182198
C -1.364824 0.769066 -0.335087
C -1.229867 -0.531523 0.268371
C 1.359973 -0.856444 0.088544
C 1.303427 0.464646 -0.24855
C 0.507819 1.436134 0.351212
H -0.963284 0.823832 -1.393757
H -2.145206 1.488551 -0.094496
H -1.756225 -0.692898 1.283642
H 1.144331 -1.135211 1.109308
H 1.752382 -1.659738 -0.574537
H 1.700956 0.873308 -1.260279
H 0.636605 2.483846 -0.072411
H 0.378295 1.518494 1.44079
