14

O 0.582636 -0.768508 -0.220694
C 2.64087 0.524814 0.246596
C 1.84655 -0.525284 -0.209264
C -0.465644 0.704447 0.07786
C -1.707242 -0.088274 0.365932
C -2.991269 -0.020187 -0.243565
H 2.24478 1.519999 0.399959
H 3.765344 0.551213 0.16843
H 2.433531 -1.489701 -0.457567
H 0.012187 1.435807 0.828683
H -0.397976 1.227282 -0.895767
H -1.469345 -0.743038 1.239059
H -3.938076 -0.621393 0.075311
H -3.142863 0.840522 -0.950657
