14

O 0.481609 -0.445171 1.005208
C 1.805326 0.187751 -1.032991
C 1.592961 -0.437756 0.244729
C -0.500483 0.807332 0.772833
C -1.521099 0.529654 -0.350995
C -1.945565 -0.719256 -0.614579
H 1.049735 0.789783 -1.681411
H 2.801954 -0.023618 -1.503904
H 2.42839 -1.044378 0.773745
H -0.9747 0.857699 1.808019
H 0.269248 1.707332 0.711172
H -1.898502 1.410297 -1.008231
H -2.658316 -0.864313 -1.506109
H -1.585793 -1.574582 0.06831
