14

O 0.681091 1.035911 -0.106167
C 2.181822 -0.888972 -0.207984
C 1.257924 -0.099717 0.333828
C -0.691373 1.081644 0.18067
C -1.470638 0.023222 -0.505131
C -1.916265 -1.068624 0.177501
H 2.449062 -0.837433 -1.2549
H 2.580756 -1.692171 0.37019
H 0.940796 -0.45882 1.356968
H -0.86644 1.035327 1.284701
H -1.077024 2.105895 -0.110417
H -1.621265 0.042534 -1.565135
H -2.387632 -1.860782 -0.335789
H -1.661493 -1.206165 1.221048
