14

O -0.755956 -1.241352 -0.257632
C -1.344999 1.042482 -0.208296
C -1.384699 -0.244306 0.375669
C 1.090915 -1.098735 0.204989
C 1.280185 0.150557 -0.429099
C 1.135041 1.278925 0.243792
H -1.054078 1.199347 -1.245035
H -1.992826 1.740052 0.258875
H -1.932562 -0.442117 1.319987
H 0.998734 -1.097388 1.308897
H 1.471819 -2.071781 -0.235227
H 1.556256 0.278797 -1.415416
H 1.167007 2.251433 -0.232511
H 1.096716 1.439847 1.349626
