14

O 0.711464 -1.294255 0.036151
C 1.361284 0.898826 0.301402
C 1.304726 -0.162409 -0.430912
C -0.987499 -0.985897 0.392598
C -1.356814 0.094219 -0.436442
C -1.053343 1.339086 0.066588
H 1.130581 0.706724 1.401579
H 1.793313 1.845781 -0.043843
H 1.748178 -0.331857 -1.466721
H -1.503098 -2.009954 0.189174
H -0.980177 -0.658152 1.423398
H -1.391906 -0.145772 -1.514139
H -0.96549 2.20398 -0.69341
H -1.128123 1.608467 1.142118
