14

O 1.632004 -1.088731 -0.381222
C 0.944877 1.098219 0.22611
C 1.309904 -0.315298 0.525024
C -1.697541 -1.084161 -0.044603
C -1.540923 0.257406 0.227493
C -0.603918 1.068868 -0.575948
H 0.844583 1.64267 1.166918
H 1.597857 1.549923 -0.516209
H 1.290903 -0.635159 1.633001
H -1.231089 -1.578539 -0.932507
H -2.239035 -1.787041 0.623974
H -1.879507 0.705124 1.187578
H -0.864474 2.135714 -0.641519
H -0.332584 0.597616 -1.508209
