14

O -0.952418 -1.291155 -0.262847
C -1.628447 0.970579 -0.251076
C -1.40833 -0.279091 0.377376
C 1.43986 -1.082676 0.164884
C 1.530711 0.20261 -0.349799
C 1.093698 1.359146 0.263429
H -1.505704 1.027214 -1.338286
H -2.189967 1.749657 0.225534
H -1.608665 -0.35225 1.446822
H 1.082046 -1.200936 1.209962
H 1.735746 -1.964007 -0.382973
H 1.893185 0.302809 -1.393632
H 1.124163 2.343016 -0.19309
H 0.788502 1.382591 1.334208
