14

O -0.714106 -1.127907 -0.199621
C -1.582615 1.042685 -0.231699
C -1.661101 -0.270694 0.262882
C 0.701389 -1.005625 0.20356
C 1.443014 0.101305 -0.449035
C 1.788822 1.189938 0.282275
H -0.575725 1.367432 -1.034501
H -2.536341 1.618053 0.081984
H -2.625212 -0.713358 1.071066
H 0.683259 -0.938644 1.33701
H 1.013818 -2.056585 0.019267
H 1.596229 -0.017195 -1.57298
H 2.204763 2.17371 -0.069072
H 1.838939 1.151448 1.438598
