14

O -0.48885 -1.350472 -0.233489
C -1.418932 0.810195 -0.289654
C -1.298605 -0.503033 0.244816
C 1.403417 -0.879611 0.185744
C 1.330867 0.401788 -0.29668
C 0.536601 1.407184 0.31187
H -1.201957 0.964475 -1.349205
H -2.104329 1.444143 0.191633
H -1.702721 -0.573956 1.314965
H 1.199677 -1.114184 1.255986
H 1.833573 -1.602279 -0.505302
H 1.638562 0.484694 -1.357227
H 0.530773 2.416112 -0.05584
H 0.354475 1.336777 1.388656
