14

O -1.020783 0.96532 -0.063724
C 1.31909 0.41198 -0.292724
C 0.201089 1.370172 0.022566
C -1.354319 -0.535788 0.109112
C -0.276903 -1.393766 -0.203563
C 1.007707 -0.842037 0.367095
H 1.448955 0.212487 -1.34636
H 2.289053 0.801527 0.066029
H 0.35519 2.249071 0.68345
H -1.669629 -0.491289 1.158972
H -2.22852 -0.645978 -0.507186
H -0.251475 -1.801162 -1.186227
H 1.90208 -1.470287 0.217215
H 0.970154 -0.589183 1.44131
