14

O -2.02651 -1.124543 -0.249036
C -0.835793 1.001646 -0.198049
C -1.487815 -0.244384 0.383374
C 2.151317 -0.928359 0.205023
C 1.518724 0.054718 -0.45812
C 0.647428 1.098619 0.213328
H -0.977407 0.981396 -1.276636
H -1.390413 1.87748 0.185459
H -1.425653 -0.312581 1.490268
H 2.045193 -1.006546 1.293035
H 2.749634 -1.687267 -0.282154
H 1.578935 0.129561 -1.537462
H 1.031715 2.098339 -0.052304
H 0.732672 0.989322 1.318785
