14

O -0.901371 -1.307277 -0.298681
C -1.591704 0.957186 -0.179734
C -1.527321 -0.383082 0.291793
C 1.557697 -0.983088 0.26195
C 1.514147 0.25059 -0.399346
C 1.031006 1.364752 0.247798
H -1.433371 1.014583 -1.282293
H -2.083556 1.781388 0.300402
H -1.969155 -0.670172 1.291972
H 1.262655 -0.940683 1.347248
H 1.691653 -1.996835 -0.193626
H 1.786968 0.217375 -1.431735
H 1.022468 2.341271 -0.133872
H 0.914191 1.314339 1.335645
