14

O -0.618554 -1.186451 -0.141225
C -1.467617 1.026177 -0.36872
C -1.320328 -0.087821 0.317979
C 0.78083 -1.162063 0.082385
C 1.368829 0.130479 -0.405393
C 1.239631 1.207097 0.4192
H -1.036684 1.032821 -1.381178
H -2.088831 1.819551 -0.064053
H -1.671432 -0.220556 1.330924
H 0.965402 -1.177207 1.149925
H 1.064208 -2.128337 -0.408618
H 1.665326 0.1558 -1.439768
H 1.484794 2.169708 0.081801
H 0.890226 1.037544 1.454401
