14

O 2.086665 -1.042427 0.057891
C 0.691416 1.007849 -0.05608
C 1.933559 0.070409 -0.327159
C -2.491786 -0.810199 -0.253815
C -1.763578 0.327209 -0.006188
C -0.409391 0.378928 0.638321
H 1.086207 1.974183 0.313312
H 0.262808 1.280539 -1.054116
H 2.717833 0.606279 -0.971138
H -2.095847 -1.785034 0.001199
H -3.438734 -0.703726 -0.803622
H -2.270294 1.323638 -0.269921
H -0.155113 -0.688777 0.715762
H -0.50781 0.700694 1.648667
