14

O -1.774196 -0.166001 -0.937013
C -0.329507 0.120802 1.061863
C -1.239006 0.632044 -0.197282
C 1.677271 0.715705 -0.825697
C 1.355902 -0.570499 -0.159489
C 0.244487 -0.821137 0.900382
H 0.369334 1.0312 1.581066
H -1.356382 -0.114541 1.835593
H -1.655373 1.728 -0.229085
H 1.042848 1.65704 -0.640022
H 2.63565 0.843039 -1.304635
H 1.87648 -1.603267 -0.245808
H 0.681115 -1.218974 1.809162
H -0.388892 -1.631642 0.418381
