14

O -0.961802 -1.404782 -0.011794
C -1.594066 0.888121 -0.41275
C -1.60489 -0.319826 0.253931
C 1.536948 -0.957221 0.001842
C 1.600874 0.326743 -0.426283
C 1.132598 1.361099 0.48311
H -0.997431 1.077255 -1.320879
H -2.132361 1.714421 -0.006268
H -2.514372 -0.426236 1.1104
H 1.542505 -1.078599 1.11606
H 1.558568 -1.885036 -0.602034
H 1.871305 0.59033 -1.408395
H 0.939625 2.439522 0.251651
H 0.707872 1.112016 1.441013
