14

O -0.553108 -1.338202 -0.239442
C -1.590262 0.844447 -0.241372
C -1.350822 -0.441886 0.222113
C 1.252542 -0.924253 0.148188
C 1.556983 0.365775 -0.216915
C 0.731219 1.382446 0.243789
H -1.370187 0.955795 -1.382643
H -2.189233 1.625224 0.296619
H -1.440928 -0.640852 1.297277
H 1.021316 -1.022411 1.287141
H 1.731386 -1.702586 -0.374274
H 1.977252 0.570656 -1.253459
H 0.884367 2.372331 -0.148311
H 0.320234 1.232691 1.273375
