14

O -0.443459 -1.360752 -0.271721
C -1.419919 0.786512 -0.235603
C -1.236533 -0.471914 0.18519
C 1.129843 -0.839294 0.247583
C 1.335518 0.398701 -0.375061
C 0.637951 1.368363 0.329281
H -1.208162 1.044552 -1.266978
H -1.952967 1.601002 0.390925
H -1.466541 -0.636582 1.299179
H 1.140924 -0.919003 1.283456
H 1.728808 -1.742166 -0.022889
H 1.636306 0.479108 -1.415674
H 0.471065 2.38044 -0.165891
H 0.721366 1.287111 1.451645
