14

O 2.481014 -0.624101 -0.043477
C 0.381213 0.713109 -0.41588
C 1.495221 -0.046486 0.424805
C -1.888929 -1.194471 -0.230682
C -1.802995 0.057992 0.251821
C -0.601516 1.0155 0.03378
H 1.003857 1.563513 -0.850929
H 0.267243 0.028216 -1.283673
H 1.323353 -0.24845 1.526355
H -1.038701 -1.79365 -0.564818
H -2.857599 -1.744089 -0.155814
H -2.811391 0.387338 0.720633
H -0.498898 1.369314 1.067121
H -0.99205 1.802029 -0.551083
