14

O 1.030727 -1.300912 -0.025875
C 1.586394 1.046329 -0.380263
C 1.549544 -0.212192 0.313655
C -1.679822 -1.074802 -0.021065
C -1.622557 0.227743 -0.39435
C -0.870856 1.17067 0.383543
H 1.900922 2.012213 0.121088
H 1.213101 0.951772 -1.427606
H 1.999218 -0.130787 1.404526
H -1.209169 -1.311457 0.961745
H -2.231227 -1.829417 -0.548799
H -1.866912 0.566514 -1.378963
H -0.724693 0.919119 1.449092
H -0.805608 2.249531 0.006486
