14

O -1.897256 -0.832566 -0.428067
C -1.086377 1.41952 0.542073
C -1.493024 0.244245 -0.032583
C 1.188557 -1.696981 0.215448
C 1.514024 -0.301966 0.380136
C 1.32459 0.922868 -0.585225
H -1.111295 1.464714 1.83935
H -0.616577 2.498908 -0.080042
H 2.448728 1.165395 -0.747195
H 0.586877 -2.037735 -0.78152
H 1.527601 -2.460384 1.116459
H 2.091284 -0.10816 1.272095
H 0.894458 1.781654 -0.133642
H 0.988676 0.770338 -1.651794
