14

O 0.923106 -0.992307 -0.07775
C 2.843307 0.588011 0.126333
C 1.232725 0.290957 -0.215446
C -1.22567 -1.079465 0.386997
C -1.891014 -0.08106 -0.369808
C -1.995879 1.167547 0.049252
H 4.104532 -0.237362 0.608729
H 3.130008 1.572305 -0.161627
H 0.195016 1.137606 -0.791818
H -1.260409 -2.133536 0.088167
H -0.96518 -0.805796 1.422689
H -2.264742 -0.447253 -1.312994
H -2.556057 1.853277 -0.52174
H -1.441262 1.562791 0.896568
