14

O -1.899185 -0.995722 -0.348629
C -0.565569 1.060397 -0.155179
C -1.361464 -0.244792 0.372207
C 1.958773 -1.053797 0.234885
C 1.359798 0.015788 -0.387367
C 0.511006 1.116357 0.220829
H -0.83281 1.162598 -1.286401
H -1.261216 1.839983 0.239135
H -1.432069 -0.395478 1.513766
H 2.042538 -1.214713 1.348552
H 2.294875 -1.878716 -0.573112
H 1.147858 -0.096977 -1.628496
H 0.882507 2.095261 -0.066955
H 0.675394 1.038606 1.351525
