14

O -1.595576 -1.283918 -0.307651
C -0.922598 1.044567 -0.187914
C -1.554821 -0.243852 0.320949
C 2.021851 -0.919262 0.251443
C 1.45423 0.111508 -0.409375
C 0.587127 1.140332 0.24489
H -0.965948 1.082278 -1.288299
H -1.452505 1.931743 0.201618
H -1.895977 -0.180883 1.375425
H 1.917762 -1.010413 1.335897
H 2.63871 -1.680658 -0.217811
H 1.516672 0.187646 -1.49687
H 0.956553 2.13354 -0.043618
H 0.651763 1.046493 1.323324
