14

O -0.633477 -0.897307 -0.067405
C -2.503249 0.66264 -0.046635
C -1.919069 -0.547832 -0.110773
C 0.51913 0.626526 0.259833
C 1.833969 0.036162 0.492683
C 2.79912 -0.017056 -0.457661
H -1.958716 1.596052 0.045185
H -3.593433 0.744714 -0.145747
H -2.530631 -1.456021 -0.271248
H 0.379617 1.154318 -0.676142
H -0.019081 1.006881 1.11296
H 2.046337 -0.363935 1.482374
H 3.778555 -0.459531 -0.293085
H 2.593646 0.357962 -1.465447
