14

O 0.660744 0.870101 -0.115172
C 2.357057 -0.777965 -0.259257
C 1.457761 -0.085506 0.470588
C -0.67789 0.973686 0.250688
C -1.506992 -0.00507 -0.51052
C -2.24553 -0.912451 0.059521
H 2.459797 -0.582347 -1.442156
H 2.910001 -1.563633 0.234851
H 1.391598 -0.169871 1.676292
H -0.78992 0.743661 1.296578
H -1.00271 2.013167 0.03393
H -1.411555 0.067759 -1.612735
H -2.749019 -1.712798 -0.503431
H -2.33041 -0.907439 1.122827
