14

O -0.528456 -1.395206 -0.237514
C -1.353388 0.767185 -0.348073
C -1.243473 -0.544939 0.257047
C 1.496532 -0.789926 0.167475
C 1.332623 0.469621 -0.297822
C 0.373833 1.399485 0.363738
H -1.24004 0.668863 -1.42809
H -2.109831 1.474295 0.005928
H -1.567796 -0.539351 1.380103
H 1.29288 -1.053407 1.246491
H 1.855586 -1.650262 -0.418755
H 1.67249 0.683032 -1.33273
H 0.388206 2.466692 0.142617
H 0.27571 1.164121 1.484408
