14

O -0.973846 -1.489254 -0.357002
C -1.035668 0.929872 -0.158323
C -1.327072 -0.488345 0.231743
C 1.615487 -0.75953 0.308738
C 1.382543 0.37145 -0.327364
C 0.421358 1.314884 0.220219
H -1.154816 1.106402 -1.256206
H -1.778499 1.551879 0.322414
H -1.865239 -0.563297 1.222323
H 1.176093 -1.072855 1.256033
H 2.221971 -1.522904 -0.112963
H 1.85744 0.60486 -1.226168
H 0.524073 2.361071 -0.150571
H 0.564396 1.351156 1.28127
