14

O -0.459827 -1.429113 0.19745
C -1.144397 0.842092 -0.212134
C -1.366205 -0.623801 -0.03124
C 1.691232 -0.656719 0.000303
C 1.308023 0.550658 -0.326335
C 0.081959 1.218779 0.368944
H -1.048371 1.068971 -1.390516
H -1.977862 1.585185 0.21311
H -2.369792 -1.011002 -0.198929
H 1.284898 -1.494406 0.853989
H 2.467782 -1.064364 -0.784206
H 1.858718 1.136889 -1.156244
H 0.185634 2.354396 0.57591
H 0.012327 0.806378 1.38589
