14

O -0.742457 -0.876352 -0.385475
C -2.646648 0.805386 0.403946
C -2.084395 -0.259568 -0.325062
C 0.560565 -0.108518 0.599639
C 1.910207 -0.349248 -0.092292
C 3.058814 0.605145 -0.258676
H -2.182779 1.450445 1.089587
H -3.600502 1.244176 0.110229
H -2.783868 -0.918563 -0.904896
H 0.278419 0.946589 0.769685
H 0.36902 -0.846389 1.416798
H 2.094048 -1.368024 -0.501225
H 4.048965 0.258706 -0.789173
H 2.874984 1.629017 0.162908
