14

O -1.735817 -1.317622 0.191019
C -1.356735 1.011185 0.58938
C -1.711968 -0.1209 -0.280185
C 2.312193 -0.666224 0.428928
C 1.528281 -0.239483 -0.606029
C 0.931809 1.113969 -0.418803
H -1.730235 2.054332 0.448451
H -1.296896 0.829532 1.785847
H -1.978399 0.151384 -1.367426
H 2.630527 0.067391 1.185097
H 2.821444 -1.587877 0.431849
H 1.357496 -0.823283 -1.663237
H 0.500299 1.604134 -1.295477
H 1.33079 1.777046 0.537873
