14

O -0.933456 -1.359963 -0.086809
C -0.907002 0.966624 0.453862
C -1.366382 -0.229684 -0.325591
C 1.288831 -0.992552 0.406523
C 1.388834 0.102097 -0.340255
C 0.573441 1.355045 -0.129078
H -1.493687 1.853715 0.302213
H -0.898664 0.707137 1.518468
H -1.914174 0.017059 -1.288149
H 0.662823 -1.021229 1.285665
H 1.970077 -1.846123 0.185113
H 2.026385 0.027796 -1.20697
H 0.43543 1.922874 -1.079031
H 1.01801 2.138939 0.558002
