14

O 0.265076 1.514188 0.191758
C 1.071005 -0.735787 -0.041023
C 1.122049 0.798586 -0.240731
C -1.604395 0.432977 0.10213
C -1.144227 -0.7438 -0.384763
C 0.123446 -1.196056 0.348058
H 1.462662 -1.188711 -0.984302
H 2.057874 -0.754817 0.53729
H 2.074227 1.231614 -0.675702
H -1.392818 0.792941 1.121938
H -2.252634 0.981864 -0.512051
H -1.351295 -1.121347 -1.372604
H 0.111403 -2.322596 0.386298
H -0.10621 -1.035255 1.379694
