14

O 0.672337 0.942813 -0.911437
C 1.511476 -0.877571 0.654095
C 1.541842 -0.059566 -0.451827
C -0.502828 1.086201 0.372768
C -1.396807 -0.178455 0.618881
C -1.903817 -0.95192 -0.328846
H 0.662293 -0.884041 1.397702
H 2.406219 -1.353949 0.929674
H 2.504096 0.022342 -1.114409
H 0.229867 1.624715 1.103629
H -1.080745 1.904178 -0.241579
H -1.649848 -0.351675 1.713754
H -2.758955 -1.675316 -0.217791
H -1.543741 -0.890199 -1.420388
