14

O -1.416586 -1.276184 0.065913
C -1.061417 1.021801 0.526169
C -1.711265 -0.103357 -0.133171
C 2.208822 -0.720151 0.3475
C 1.290611 -0.22994 -0.474756
C 0.649922 1.121625 -0.367154
H -1.462152 2.027984 0.279348
H -0.853791 0.882942 1.580521
H -2.538095 0.13138 -0.902956
H 2.564469 -0.13485 1.214659
H 2.586393 -1.707774 0.246103
H 0.876766 -0.870381 -1.220647
H 0.404451 1.565491 -1.330189
H 1.150698 1.880971 0.190716
