14

O -0.61607 -1.439549 -0.249797
C -1.27334 0.873398 -0.197625
C -1.37706 -0.534483 0.221472
C 1.49526 -0.876808 0.152254
C 1.426321 0.412895 -0.238303
C 0.477482 1.473448 0.291608
H -1.32744 0.903033 -1.33593
H -2.124799 1.490186 0.059333
H -2.206471 -0.816138 0.99117
H 1.186629 -0.925962 1.263821
H 1.968107 -1.677515 -0.405719
H 1.617177 0.570305 -1.346772
H 0.414934 2.37978 -0.279777
H 0.530286 1.541376 1.40652
