14

O 0.731242 1.061527 -0.025312
C 2.241911 -0.842283 -0.323065
C 1.341054 -0.083453 0.403047
C -0.690426 1.015965 0.227433
C -1.334458 -0.131658 -0.514658
C -2.223777 -0.956112 0.101148
H 2.623078 -0.731129 -1.367205
H 2.549737 -1.799948 0.243633
H 1.178712 -0.424611 1.45502
H -0.873771 0.922934 1.332571
H -1.173335 2.020813 -0.014891
H -0.992733 -0.294071 -1.609707
H -2.761901 -1.686729 -0.496535
H -2.594386 -0.891624 1.231405
