14

O -1.04552 -1.18103 -0.085302
C -1.235277 1.255495 0.251771
C -1.512111 0.128627 -0.433144
C 0.457363 -1.045416 0.624163
C 1.37384 -0.258101 -0.298081
C 1.97535 0.989004 -0.157816
H -0.717745 1.484093 1.332895
H -1.859726 2.101916 -0.11285
H -2.281514 0.082414 -1.32554
H 0.306003 -0.545733 1.525219
H 0.586722 -2.109394 0.840742
H 1.584403 -0.798325 -1.2013
H 2.496123 1.299684 -1.102509
H 1.951851 1.650387 0.67353
