14

O -1.060513 -1.278869 -0.318272
C -0.96363 1.071243 -0.184352
C -1.484724 -0.281441 0.271428
C 1.747433 -0.958374 0.293057
C 1.252239 0.081106 -0.38095
C 0.554546 1.220752 0.268968
H -1.189185 1.174555 -1.317804
H -1.548064 1.913312 0.221549
H -2.288626 -0.283603 1.063778
H 1.721493 -1.151706 1.430538
H 2.004793 -1.820106 -0.44252
H 1.044339 0.000443 -1.576831
H 0.833878 2.309357 0.0195
H 0.646775 1.203357 1.383463
