14

O -1.298719 -1.371588 -0.284035
C -1.508631 1.057008 -0.222873
C -1.53368 -0.299331 0.342092
C 1.766535 -1.041018 0.208817
C 1.547636 0.182579 -0.396313
C 1.03634 1.338873 0.272829
H -1.380145 1.169396 -1.283307
H -1.954072 1.898736 0.334365
H -1.811556 -0.335704 1.447304
H 1.558702 -1.233057 1.259261
H 2.11422 -1.899887 -0.362549
H 1.774121 0.292777 -1.443171
H 1.015328 2.295549 -0.247663
H 1.028961 1.309442 1.395483
