14

O -0.533559 -1.299868 -0.213505
C -1.395372 0.851168 -0.366228
C -1.229582 -0.3565 0.327292
C 1.162123 -0.997067 0.109467
C 1.367391 0.35454 -0.3094
C 0.68333 1.340842 0.375555
H -1.184072 0.85912 -1.437003
H -2.044545 1.660983 -0.024047
H -1.56908 -0.452803 1.398223
H 1.06133 -1.171308 1.182565
H 1.644098 -1.77117 -0.44154
H 1.635432 0.477577 -1.319796
H 0.769526 2.348537 0.01955
H 0.39355 1.271962 1.437457
