14

O -0.850675 -1.419652 -0.205278
C -1.39216 0.829926 -0.327105
C -1.388678 -0.432487 0.279629
C 1.47389 -0.884955 0.140621
C 1.533322 0.383125 -0.297477
C 0.762809 1.44386 0.34027
H -1.325886 0.971645 -1.41973
H -2.063665 1.573392 0.193473
H -1.815234 -0.537009 1.338961
H 1.104754 -1.421799 1.138896
H 1.685738 -1.720054 -0.544546
H 1.828312 0.544343 -1.355322
H 0.858043 2.408523 -0.013407
H 0.442311 1.378026 1.369451
