14

O -0.877671 -1.105846 -0.318856
C -2.06482 0.887533 0.22515
C -1.852073 -0.263439 -0.394891
C 0.676131 -0.266469 0.840702
C 1.429582 0.540071 -0.155921
C 2.746777 0.169453 -0.288849
H -1.452263 1.369211 1.041421
H -3.048928 1.364654 0.214439
H -2.755592 -0.702181 -0.955657
H -0.122226 0.215557 1.43917
H 1.172008 -1.263789 1.068107
H 0.904821 1.391741 -0.747634
H 3.524105 0.664765 -0.932723
H 3.212448 -0.77131 0.401796
