14

O -1.643957 -0.915517 -0.652027
C -0.479682 0.894631 0.431001
C -1.561183 -0.299206 0.378332
C 1.741941 -0.947212 0.364694
C 1.639127 0.154007 -0.329146
C 0.332747 0.975675 -0.307305
H -1.148484 1.763728 0.747176
H -0.066159 0.860908 1.420689
H -2.32022 -0.39421 1.14585
H 0.969481 -1.267869 1.097383
H 2.675024 -1.619686 0.311746
H 2.439657 0.39522 -1.088875
H -0.066477 0.763101 -1.357003
H 0.608119 2.127436 -0.45944
