14

O 1.3138 -1.308702 0.402402
C 0.787459 0.963592 -0.279752
C 1.56354 -0.361009 -0.322627
C -1.875539 -0.823779 -0.199085
C -1.535263 0.45502 -0.178886
C -0.336866 0.957304 0.601599
H 1.594662 1.69417 -0.032051
H 0.572196 1.206938 -1.326875
H 2.431638 -0.341087 -1.029597
H -1.339142 -1.61155 0.393283
H -2.647358 -1.123215 -0.894138
H -2.142243 1.165786 -0.808272
H -0.181494 0.302013 1.490764
H -0.531868 1.969977 0.965103
