14

O -1.127577 -1.241258 0.533153
C -0.888734 0.990934 -0.35714
C -1.559327 -0.41549 -0.282387
C 1.944384 -0.826635 -0.298313
C 1.490053 0.463315 -0.188753
C 0.210202 0.882359 0.599855
H -0.57578 1.277161 -1.488276
H -1.86527 1.690888 -0.22557
H -2.24323 -0.624723 -1.258621
H 1.220792 -1.689236 0.177587
H 3.073445 -0.988109 -0.61408
H 2.162529 1.33087 -0.730678
H 0.422561 1.935954 1.312072
H -0.071035 0.12106 1.405512
