14

O -0.739516 -0.941425 -0.201695
C -2.450821 0.646247 -0.408108
C -1.467376 -0.009357 0.390639
C 0.63635 -0.882367 0.204087
C 1.420009 0.197947 -0.53906
C 2.588097 0.928621 0.432416
H -2.738142 0.440287 -1.589356
H -3.16493 1.253049 0.132764
H -1.293882 0.023198 1.450828
H 0.674779 -0.876466 1.259785
H 1.099667 -1.835158 -0.022445
H 1.060851 0.399476 -1.810528
H 3.274016 1.752466 0.069252
H 2.696186 0.820085 1.59978
