14

O -0.537351 -1.316826 -0.282977
C -1.422143 0.888111 -0.254598
C -1.242772 -0.395932 0.258053
C 1.185801 -1.02612 0.171647
C 1.373877 0.324783 -0.226213
C 0.694576 1.418911 0.243747
H -1.300996 1.201957 -1.34561
H -2.097735 1.577118 0.293622
H -1.459377 -0.524564 1.405181
H 1.049575 -1.26796 1.284809
H 1.607031 -1.894141 -0.331267
H 1.907505 0.381959 -1.13718
H 0.740539 2.404828 -0.190273
H 0.302563 1.413214 1.272516
