14

O -2.014926 -1.118405 -0.290648
C -0.824461 1.019655 -0.141113
C -1.586122 -0.209449 0.407434
C 2.261871 -0.857574 0.209032
C 1.450043 -0.03668 -0.466235
C 0.6657 1.050233 0.186175
H -0.952182 1.20049 -1.220197
H -1.222812 1.924632 0.355312
H -1.84821 -0.222456 1.544672
H 2.327839 -0.853635 1.308798
H 2.79845 -1.701255 -0.26747
H 1.410609 -0.04538 -1.597466
H 1.100194 1.981404 -0.162508
H 0.779665 0.917081 1.247764
