14

O -0.573443 -1.400051 -0.188308
C -1.328674 0.817151 -0.320482
C -1.37611 -0.575761 0.201478
C 1.693779 -0.790779 0.169058
C 1.320713 0.466096 -0.239395
C 0.301543 1.337932 0.309124
H -1.315077 0.798244 -1.415049
H -1.987941 1.686658 0.052966
H -1.854651 -0.76674 1.150147
H 1.547182 -1.251507 1.152838
H 2.390273 -1.330847 -0.614563
H 1.762713 0.828049 -1.235636
H 0.519329 2.46307 0.0417
H 0.105632 1.384185 1.413411
