14

O -1.125054 -1.407274 -0.109022
C -1.1334 0.973837 -0.401411
C -1.584112 -0.252902 0.156258
C 1.568091 -0.934537 -0.368349
C 1.458164 0.09706 0.595464
C 0.822644 1.388178 0.165672
H -0.97587 0.938558 -1.545045
H -1.723768 1.783192 0.078235
H -2.359495 -0.028931 1.068063
H 1.073399 -0.977358 -1.538733
H 1.976194 -1.889911 0.016888
H 1.662614 0.084333 1.822976
H 1.127298 1.723387 -0.807326
H 0.871415 2.164314 0.956603
