14

O -0.479857 -1.2957 -0.221164
C -1.423544 0.850927 -0.314027
C -1.230021 -0.319237 0.265703
C 1.057692 -1.036314 0.143027
C 1.331211 0.316115 -0.307525
C 0.785474 1.371709 0.347854
H -1.220403 1.027645 -1.408847
H -2.078937 1.582637 0.135604
H -1.567192 -0.432169 1.316998
H 1.066697 -1.218473 1.245912
H 1.560781 -1.904224 -0.356552
H 1.671423 0.569738 -1.310393
H 0.813549 2.385019 -0.022662
H 0.361835 1.288583 1.358432
