14

O 0.395791 0.830378 -0.503455
C 1.70593 -0.925525 0.52631
C 1.514848 -0.011681 -0.491397
C -0.281898 1.057485 0.227948
C -1.545355 0.112996 0.391427
C -1.766241 -1.037448 -0.290551
H 1.021324 -0.977297 1.335999
H 2.638627 -1.500767 0.490258
H 2.067883 0.112767 -1.418267
H 0.056583 0.953143 1.325709
H -0.739615 2.144454 0.156561
H -2.348893 0.432969 1.133639
H -2.59862 -1.699206 -0.081331
H -1.042259 -1.454611 -1.040318
