14

O 0.207878 -1.361556 -0.274286
C -1.537332 0.164036 -0.343877
C -0.974298 -0.975678 0.270967
C 1.45649 -0.421683 0.123378
C 1.023933 0.960735 -0.171098
C -0.103624 1.556531 0.354913
H -1.461089 0.276075 -1.452201
H -2.503113 0.532091 -0.131251
H -1.008942 -1.2913 1.380389
H 1.724607 -0.639805 1.155387
H 2.348775 -0.805681 -0.352741
H 1.135659 1.211128 -1.206438
H -0.603122 2.323172 -0.279117
H -0.399181 1.553969 1.445457
