14

O 0.847006 -1.081045 -0.57326
C 1.340112 1.024378 0.553231
C 1.569841 -0.028592 -0.291861
C -0.825762 -1.125208 0.615105
C -1.657471 -0.03062 0.006765
C -1.301806 1.198689 -0.4031
H 0.572093 0.888276 1.397833
H 2.060855 1.917857 0.611525
H 2.534045 -0.122801 -0.821464
H -1.170736 -2.142651 0.278264
H -0.496537 -1.058589 1.648314
H -2.789155 -0.486647 -0.133944
H -2.175845 1.695152 -0.749773
H -0.258956 1.638446 -0.535335
