14

O -0.955301 -1.067239 -0.177466
C -1.464808 1.233802 0.4087
C -1.558981 0.107362 -0.41155
C 0.384028 -0.898122 0.631562
C 1.547012 -0.407894 -0.266205
C 2.029413 0.868379 -0.259377
H -0.726412 1.312297 1.198434
H -1.998375 2.165525 0.151168
H -2.24484 -0.037885 -1.434471
H 0.24766 -0.146983 1.411391
H 0.534084 -1.988852 0.966276
H 2.003641 -1.065572 -1.061753
H 2.868626 1.274954 -0.90256
H 1.501852 1.804584 0.376265
