14

O -1.114412 -1.273971 -0.110443
C -1.361743 0.936579 -0.368055
C -1.603679 -0.285122 0.309988
C 1.901315 -1.024538 0.02995
C 1.541444 0.254686 -0.293855
C 0.674853 1.218558 0.37221
H -1.30813 0.817237 -1.470811
H -1.988342 1.870394 -0.06386
H -2.067714 -0.215973 1.290953
H 1.374856 -1.438892 0.936024
H 2.751412 -1.653048 -0.550791
H 2.003166 0.838791 -1.213297
H 0.918485 2.273838 -0.029907
H 0.360699 1.170818 1.441454
