14

O -1.46948 -1.374554 -0.250665
C -1.659833 1.039683 -0.335297
C -1.458349 -0.284708 0.308205
C 1.935347 -0.973835 -0.251913
C 1.570284 0.0925 0.630255
C 1.052608 1.312084 -0.019147
H -1.797847 1.232443 -1.506241
H -1.86121 1.94122 0.369171
H -1.43602 -0.276153 1.416365
H 1.658743 -0.947693 -1.347012
H 2.517239 -1.858815 0.102631
H 1.705793 -0.00681 1.749974
H 1.071396 1.510927 -1.132241
H 1.272402 2.263437 0.636545
