14

O 0.96011 -1.397475 -0.135301
C 1.258986 0.949255 -0.237357
C 1.395514 -0.373448 0.36409
C -1.553058 -0.921382 -0.276222
C -1.434988 0.229504 0.414326
C -0.689934 1.371418 -0.095373
H 1.77269 1.754154 0.301854
H 1.368465 0.97765 -1.319897
H 1.833228 -0.397814 1.378092
H -1.193822 -1.003664 -1.30617
H -2.007382 -1.803151 0.16528
H -1.742208 0.267756 1.469938
H -0.704606 2.293111 0.500291
H -0.865335 1.602087 -1.138047
