14

O 0.905299 -1.266396 -0.284151
C 1.562994 1.055814 -0.23761
C 1.393497 -0.297726 0.326092
C -1.588758 -1.04045 0.269407
C -1.323714 0.105689 -0.468213
C -0.910435 1.295471 0.298871
H 2.139885 1.772591 0.482867
H 1.482584 1.261614 -1.296896
H 1.616479 -0.316028 1.380326
H -1.480248 -1.11685 1.3191
H -1.765385 -2.066675 -0.235998
H -1.524299 0.207366 -1.500246
H -0.824295 1.246112 1.405751
H -1.246068 2.277278 -0.102229
