14

O -2.221611 -0.946073 -0.355306
C -0.800359 1.003311 -0.009862
C -1.534099 -0.316096 0.392889
C 2.424094 -0.786005 0.261784
C 1.394009 -0.142536 -0.490685
C 0.725143 1.03635 0.096699
H -1.27169 1.223282 -0.979067
H -1.188887 1.812541 0.640426
H -1.585961 -0.613253 1.440927
H 2.916426 -0.431813 1.347473
H 2.718325 -1.860356 -0.15955
H 0.965121 -0.554631 -1.609223
H 1.039649 2.03574 -0.232989
H 0.793829 1.084544 1.146057
