14

O -0.229642 -1.354105 -0.367437
C -1.415175 0.626915 -0.173988
C -1.192185 -0.744548 0.217636
C 1.28682 -0.763605 0.251152
C 1.261071 0.578227 -0.174152
C 0.360235 1.547879 0.2019
H -1.493544 0.617436 -1.251242
H -2.073551 1.224048 0.431687
H -1.516022 -1.126832 1.159465
H 1.363563 -0.924938 1.420466
H 1.896265 -1.458452 -0.31842
H 1.374374 0.77033 -1.306644
H 0.224916 2.374124 -0.531008
H 0.104679 1.879377 1.302896
