14

O 0.526783 0.882249 -0.648731
C 1.666263 -0.950008 0.526038
C 1.411009 -0.04738 -0.47498
C -0.495968 1.078542 0.587877
C -1.671795 0.151087 0.352823
C -1.484917 -1.058745 -0.447602
H 1.092179 -1.188335 1.468237
H 2.781905 -1.298859 0.545331
H 2.105773 -0.098544 -1.325302
H 0.151927 1.021302 1.532435
H -0.978759 2.065605 0.582814
H -2.874034 0.469176 0.730603
H -2.484373 -1.564863 -0.535861
H -0.541499 -1.48104 -1.141825
