14

O 1.620553 -1.439906 -0.142976
C 1.522412 0.945899 -0.366119
C 1.744131 -0.303326 0.326872
C -2.137242 -0.915599 0.080692
C -1.758704 0.304211 -0.363516
C -1.070643 1.287307 0.37857
H 1.781197 1.885299 0.166864
H 1.313482 0.924609 -1.463765
H 2.053125 -0.090595 1.37293
H -1.762037 -1.435217 0.994106
H -2.746178 -1.542224 -0.587528
H -2.224746 0.552184 -1.302356
H -0.795968 1.122384 1.43267
H -1.011707 2.289487 0.044973
