14

O -0.642477 -1.465708 -0.272559
C -1.20706 0.834544 -0.221464
C -1.343091 -0.5759 0.231133
C 1.610054 -0.76402 0.191342
C 1.367723 0.481177 -0.273227
C 0.300747 1.384851 0.275587
H -1.19502 0.767736 -1.347942
H -2.022714 1.481168 0.166082
H -2.09617 -0.772448 1.085059
H 1.284248 -1.063865 1.187939
H 2.243315 -1.489406 -0.285071
H 1.862007 0.729653 -1.185596
H 0.451439 2.413783 -0.084842
H 0.219303 1.49642 1.337073
