14

O -0.969167 -0.945729 -0.022957
C 1.344101 -0.387115 0.176778
C 0.223037 -1.377586 0.015452
C -1.345495 0.279607 0.004647
C -0.395246 1.330727 0.018019
C 1.030924 1.015637 -0.230304
H 1.546743 -0.294775 1.245405
H 2.343898 -0.757475 -0.310666
H 0.466045 -2.249193 -0.510357
H -2.083211 0.452133 -0.74779
H -1.896357 0.313192 0.90349
H -0.778757 2.341196 0.638833
H 1.67622 1.861411 0.141065
H 1.296901 0.848123 -1.23891
