14

O 0.693387 -0.983226 -0.450478
C 1.553996 1.006201 0.502817
C 1.628915 -0.053554 -0.217948
C -0.688633 -1.068792 0.459393
C -1.8214 -0.132852 -0.055655
C -1.414727 1.157701 -0.388807
H 0.666775 1.156101 1.203982
H 2.427476 1.588092 0.891853
H 2.544304 -0.20356 -0.882219
H -0.754042 -2.146534 0.332957
H -0.352699 -0.977846 1.486951
H -2.881961 -0.282232 -0.086993
H -2.265198 1.68582 -0.769105
H -0.29898 1.541655 -0.389645
