14

O 1.184193 -1.316502 0.423998
C 0.838071 0.958182 -0.383361
C 1.533691 -0.366528 -0.21734
C -1.753082 -0.941793 -0.345283
C -1.621487 0.464934 0.019398
C -0.251624 1.096825 0.543602
H 1.543617 1.799702 -0.214592
H 0.666168 1.116558 -1.532978
H 2.435257 -0.343434 -0.786102
H -0.750854 -2.044007 -0.277428
H -2.755595 -1.180986 -0.865034
H -2.504621 1.41478 -0.243627
H -0.108566 0.436786 1.379145
H -0.416008 2.0444 1.115114
