14

O -1.07986 -0.772098 -0.114307
C 1.339054 -0.278486 0.138572
C 0.200097 -1.399456 0.235792
C -1.353789 0.212951 -0.030212
C -0.319534 1.290389 0.243413
C 1.005784 0.675716 -0.341942
H 1.664935 -0.179975 1.22174
H 2.213512 -0.812005 -0.291027
H 0.258267 -2.170522 -0.549146
H -2.404345 0.519427 -0.292351
H -0.205142 1.497357 1.330086
H -0.651965 2.243569 -0.218699
H 1.731149 1.51535 -0.345885
H 0.763412 0.598234 -1.441364
