14

O 2.664371 -0.805667 -0.212418
C 0.712343 0.800898 -0.15271
C 1.330684 -0.51224 0.332479
C -2.40683 -0.789828 0.288991
C -1.568993 0.033055 -0.463807
C -0.725138 1.117735 0.141892
H 1.295636 1.651117 0.262047
H 1.014518 0.88222 -1.227584
H 0.378623 -1.212387 1.270398
H -2.483781 -0.813413 1.307648
H -2.837965 -1.670623 -0.219109
H -1.380394 -0.162946 -1.563512
H -0.933327 1.183461 1.255319
H -0.749969 2.155936 -0.452177
