14

O -0.753956 -1.20373 -0.130608
C -1.416052 0.927536 -0.444038
C -1.331448 -0.100838 0.439345
C 0.785928 -1.13717 -0.008815
C 1.436216 0.167269 -0.351477
C 1.260175 1.262913 0.427354
H -1.001249 1.015164 -1.412826
H -1.740624 2.019085 -0.146909
H -1.782205 -0.194918 1.463137
H 0.903736 -1.502296 1.011781
H 1.242279 -2.0079 -0.640051
H 2.027731 0.086584 -1.334003
H 1.414057 2.326579 0.071072
H 0.768946 1.15174 1.341223
