14

O -1.057014 1.025009 -0.135764
C 1.31934 0.421403 -0.147933
C 0.14207 1.336852 0.018864
C -1.317027 -0.498058 0.143107
C -0.300159 -1.407583 -0.166314
C 1.067651 -0.910743 0.267313
H 1.529519 0.446511 -1.27403
H 2.212411 0.89882 0.271771
H 0.273585 2.438236 0.35545
H -1.464046 -0.237032 1.178344
H -2.234881 -0.733883 -0.401594
H -0.302968 -2.091042 -1.053263
H 1.883799 -1.537714 -0.186194
H 1.204047 -1.028353 1.394927
