14

O 0.450102 -0.348466 0.689383
C 2.453935 0.253858 -0.701866
C 1.683461 -0.514024 0.157683
C -0.497541 0.860295 0.419898
C -1.885486 0.427755 -0.060612
C -2.260967 -0.774802 -0.436452
H 2.224454 1.337588 -0.913795
H 3.397626 -0.107141 -1.0453
H 2.057266 -1.507737 0.572207
H -0.786381 1.248391 1.467266
H -0.012324 1.626572 -0.175833
H -2.548737 1.388362 -0.124291
H -3.349627 -1.002933 -0.756831
H -1.541829 -1.701717 -0.559982
