14

O -0.788935 -1.215094 -0.349778
C -1.594108 0.978009 -0.156274
C -1.459169 -0.354167 0.324352
C 1.290129 -1.020417 0.291463
C 1.419557 0.129769 -0.425164
C 1.216103 1.362228 0.247274
H -1.115966 1.238773 -1.098565
H -2.374907 1.710948 0.27427
H -2.283821 -0.601199 1.253014
H 1.141451 -0.815802 1.391247
H 1.29255 -2.20541 -0.002714
H 1.539058 0.101111 -1.568056
H 1.458523 2.375571 -0.245238
H 1.160447 1.338008 1.337796
