14

O 0.698912 0.979667 -0.212929
C 2.218423 -0.824953 -0.24218
C 1.389882 -0.010975 0.413684
C -0.687426 1.024831 0.208812
C -1.49996 -0.044972 -0.456003
C -2.08775 -1.050179 0.186099
H 2.318075 -0.770303 -1.315754
H 2.78645 -1.601228 0.270941
H 1.251469 -0.05285 1.488244
H -0.754529 0.91957 1.29019
H -1.070545 2.017551 -0.093203
H -1.554503 0.0314 -1.557903
H -2.654721 -1.833963 -0.31994
H -1.963609 -1.145265 1.253848
