14

O -0.87733 -1.407225 -0.122412
C -1.299938 1.165005 0.488947
C -1.261009 -0.252847 -0.973568
C 0.808111 -1.074147 0.27527
C 1.383378 0.144875 -0.211417
C 1.196857 1.331439 0.442682
H -0.865151 1.341786 2.383563
H -1.686408 2.080195 -0.151997
H -1.63139 -0.51617 -2.911314
H 0.78047 -1.161608 1.403387
H 1.314572 -2.073719 -0.075911
H 1.934948 0.242462 -1.188257
H 1.711715 2.268541 0.143407
H 0.582424 1.430989 1.371768
