14

O -2.532701 -0.868511 -0.265348
C -0.859463 0.95215 -0.133964
C -1.333791 -0.46977 0.366986
C 2.339623 -0.853515 0.304407
C 1.584289 0.000258 -0.459531
C 0.725065 1.037313 0.091094
H -1.045351 1.170657 -1.138242
H -1.336959 1.717755 0.502599
H -0.261667 -1.207485 1.272411
H 2.193465 -0.76297 1.420441
H 3.260955 -1.374301 -0.214131
H 1.601314 0.070865 -1.547448
H 1.006845 2.039728 -0.345091
H 0.96535 1.342114 1.190239
