14

O -0.552933 -0.758932 -0.365142
C -2.461379 0.775948 0.199416
C -1.989125 -0.416619 -0.283005
C 0.411832 -0.046859 0.592723
C 1.876561 -0.304479 0.162238
C 2.786637 0.55757 -0.357453
H -1.729745 1.565907 0.589508
H -3.476459 1.102789 -0.018713
H -2.698382 -1.065207 -0.773341
H -0.034905 0.988042 0.739009
H 0.223273 -0.51153 1.605278
H 2.187018 -1.384608 0.239083
H 3.808574 0.24162 -0.600263
H 2.259496 1.550324 -0.585927
