14

O -1.56832 -0.924572 -0.701745
C -0.478604 0.865133 0.497136
C -1.544455 -0.228916 0.323763
C 1.837519 -0.938849 0.490692
C 1.439105 -0.000676 -0.439317
C 0.276382 1.078625 -0.316022
H -1.052089 1.790833 0.868561
H 0.016737 0.639746 1.404728
H -2.229421 -0.327648 1.154553
H 1.35328 -1.136659 1.512534
H 2.790977 -1.399991 0.2921
H 2.003097 0.053468 -1.413284
H -0.131795 1.153608 -1.315008
H 0.869634 2.013908 -0.070367
