14

O -0.689533 -1.200619 -0.234479
C -1.236555 1.123976 0.392637
C -1.488705 -0.095001 -0.203624
C 0.629603 -1.167451 0.151626
C 1.507763 0.04733 0.15155
C 1.280697 1.235738 -0.36397
H -0.530191 1.369912 1.159882
H -2.052965 1.834357 0.291436
H -2.412989 -0.292716 -0.737992
H 0.723501 -1.595438 1.236899
H 1.134407 -1.904894 -0.578868
H 2.391333 -0.142375 0.828562
H 1.929808 2.085212 -0.286396
H 0.489024 1.256115 -1.139304
