14

O -1.117314 -1.342615 -0.252139
C -1.772468 0.975399 -0.284556
C -1.544573 -0.284235 0.294816
C 1.692778 -1.051869 0.191024
C 1.545865 0.193114 -0.36045
C 1.266089 1.405078 0.33243
H -1.638841 1.039096 -1.334209
H -2.129216 1.786466 0.346682
H -1.679154 -0.240174 1.426681
H 1.586294 -1.22261 1.267565
H 1.871187 -1.994408 -0.396734
H 1.72693 0.248362 -1.421108
H 1.041475 2.310544 -0.270106
H 1.218382 1.403054 1.440674
