14

O -0.640279 -0.973343 -0.382213
C -2.47107 0.826763 -0.273388
C -1.517332 -0.005029 0.32534
C 0.681644 -0.9833 0.265515
C 1.544076 0.019952 -0.324534
C 2.368139 1.014501 0.320066
H -2.75167 0.749926 -1.454269
H -3.121198 1.573115 0.304148
H -1.284852 -0.066245 1.488125
H 0.689158 -0.917889 1.383167
H 1.148817 -1.968252 -0.129773
H 1.373524 0.136141 -1.539437
H 2.895406 1.781298 -0.378272
H 2.509571 1.232935 1.488433
