14

O -0.447218 -1.180686 -0.353761
C -1.69576 0.860607 -0.23424
C -1.359364 -0.307462 0.308509
C 0.654167 -1.10651 0.187035
C 1.403239 0.190949 -0.247925
C 1.390561 1.438753 0.252883
H -1.035663 1.123381 -1.117285
H -2.479691 1.569975 0.171244
H -1.886303 -0.669627 1.160829
H 0.741447 -1.214965 1.329902
H 1.335018 -1.94414 -0.119528
H 2.263865 0.027295 -1.02238
H 1.806667 2.370533 -0.190253
H 0.535781 1.520894 1.026163
