14

O 0.598025 -1.227092 -0.417895
C -1.440227 -0.22395 -0.217676
C -0.55866 -1.286673 0.235475
C 1.538551 0.205441 0.278351
C 0.671845 1.202817 -0.184976
C -0.692457 1.272971 0.263538
H -1.440098 -0.042227 -1.292344
H -2.581696 -0.354488 0.019392
H -0.605199 -1.533696 1.393431
H 1.592521 -0.179328 1.364231
H 2.547381 0.052271 -0.112502
H 0.971462 1.653882 -1.163089
H -1.379823 1.994099 -0.254631
H -0.926332 1.331906 1.299646
