14

O -1.11613 -1.276136 -0.528038
C -1.109751 1.006293 -0.033398
C -1.439175 -0.441486 0.356867
C 1.734598 -0.947882 0.4172
C 1.379507 0.122397 -0.310134
C 0.559704 1.37147 0.033905
H -1.294828 1.164111 -1.070208
H -1.590636 1.803041 0.639415
H -1.701988 -0.667814 1.497861
H 1.303883 -1.124547 1.464768
H 2.177772 -1.826893 -0.01812
H 1.678886 0.157928 -1.428602
H 0.938345 2.375909 -0.465276
H 0.758424 1.652729 1.152413
