14

O -0.572324 -1.418927 -0.352362
C -1.334563 0.7559 -0.259103
C -1.183915 -0.576279 0.295772
C 1.41806 -0.781671 0.241752
C 1.324153 0.450713 -0.280951
C 0.42751 1.456521 0.301982
H -1.260607 0.799189 -1.365043
H -1.983976 1.450194 0.228124
H -1.47189 -0.786091 1.333745
H 1.059364 -0.96895 1.277716
H 1.968055 -1.556132 -0.29765
H 1.663259 0.550738 -1.282727
H 0.374179 2.39036 -0.235518
H 0.380793 1.678438 1.380533
