14

O 1.660029 -1.451455 -0.046307
C 1.879535 0.949831 -0.419585
C 1.956348 -0.32517 0.338666
C -2.118141 -0.922113 0.02524
C -2.090891 0.343534 -0.411008
C -1.362851 1.296016 0.412192
H 2.256282 1.766908 0.17391
H 1.414674 1.19337 -1.485569
H 2.328843 -0.026481 1.359425
H -1.906238 -1.244295 0.986689
H -2.489323 -1.623648 -0.726051
H -2.372561 0.469185 -1.376803
H -0.964128 0.94152 1.427615
H -1.401202 2.336181 0.149327
