14

O -0.259556 -0.905504 -0.416346
C -1.942569 0.745777 -0.033769
C -1.292019 -0.347653 0.339933
C 0.687947 -1.073907 -0.086089
C 1.583055 0.157684 0.210268
C 1.170517 1.404994 -0.077794
H -1.746978 1.258025 -0.980058
H -2.768847 1.123278 0.544996
H -1.392403 -0.871941 1.277533
H 0.813322 -1.718747 0.876593
H 1.356146 -1.706767 -0.777601
H 2.559274 -0.040765 0.665495
H 1.783943 2.266876 0.131832
H 0.228277 1.611597 -0.567523
