14

O 0.566049 0.848798 -0.701187
C 1.758875 -0.898418 0.602007
C 1.600695 0.002961 -0.390598
C -0.549047 1.032746 0.463915
C -1.578945 -0.040066 0.445491
C -1.829435 -0.915147 -0.508926
H 0.996038 -1.04961 1.345952
H 2.684291 -1.424445 0.642894
H 2.35988 0.088442 -1.184501
H -0.018815 1.060464 1.443012
H -0.955605 2.020117 0.227933
H -2.234078 0.018219 1.298257
H -2.678862 -1.626441 -0.457973
H -1.163633 -1.059455 -1.355072
