14

O -1.004438 -1.332123 0.349853
C -1.090496 1.016648 -0.214149
C -1.523391 -0.431136 -0.26757
C 1.767298 -0.898961 -0.099353
C 1.485132 0.388029 -0.269917
C 0.448594 1.143042 0.523165
H -1.084097 1.426047 -1.238314
H -1.832527 1.608447 0.346979
H -2.359385 -0.645827 -0.966471
H 1.280125 -1.516016 0.652785
H 2.511613 -1.371576 -0.747601
H 2.011302 0.939602 -1.042692
H 0.67952 2.200589 0.605508
H 0.342755 0.705233 1.516597
