14

O -0.661676 -1.053006 -0.214133
C -1.842092 1.010554 0.27225
C -1.690606 -0.167911 -0.359179
C 0.393017 -0.675891 0.479528
C 1.208001 0.442919 -0.150637
C 2.527714 0.36724 -0.152026
H -1.159902 1.47149 0.952344
H -2.724964 1.574964 -0.00671
H -2.448713 -0.515267 -1.071345
H 0.079732 -0.308569 1.480171
H 1.025954 -1.542361 0.610714
H 0.691945 1.324415 -0.556226
H 3.217304 1.127634 -0.534272
H 3.059468 -0.507596 0.317134
