14

O -0.559093 -1.291162 -0.381377
C -1.371743 0.804781 -0.172831
C -1.217607 -0.531109 0.263673
C 1.507419 -0.784155 0.352697
C 1.37452 0.375836 -0.359464
C 0.376797 1.304007 0.228979
H -1.174594 0.903174 -1.209356
H -2.163297 1.380206 0.331597
H -1.735676 -0.80223 1.198437
H 1.266141 -0.683218 1.442523
H 1.932236 -1.650917 -0.022733
H 1.363571 0.503264 -1.515228
H 0.3311 2.315948 -0.134253
H 0.479814 1.206385 1.258439
