14

O 1.288771 0.127355 -0.232097
C -0.719215 1.165072 0.518238
C 0.487577 1.278498 -0.16693
C 0.963575 -0.764535 0.124844
C -0.52343 -1.374274 0.061977
C -1.357874 -0.405843 -0.449961
H -0.666427 0.635326 1.482083
H -1.477489 2.006613 0.369523
H 0.802006 2.038317 -0.905056
H 1.541809 -1.609478 -0.255267
H 0.953994 -1.066206 1.261059
H -0.883021 -1.886759 1.049377
H -2.493143 -0.478544 -0.225407
H -1.225725 0.051806 -1.396865
