14

O 2.15077 -1.038794 -0.003213
C 0.653099 0.919303 -0.13746
C 2.044249 0.156864 -0.198903
C -2.585197 -0.778054 -0.186432
C -1.833124 0.386058 -0.027084
C -0.404514 0.282837 0.589831
H 0.860398 1.947862 0.27335
H 0.486014 1.047976 -1.217319
H 2.998585 0.767756 -0.50573
H -2.305551 -1.808059 0.16181
H -3.519424 -0.588519 -0.749184
H -2.325319 1.395828 -0.350483
H -0.134393 -0.796289 0.727719
H -0.554603 0.714894 1.631417
