14

O 0.612844 -0.865436 -0.621197
C 1.644046 0.916886 0.726132
C 1.528299 0.055642 -0.34916
C -0.663492 -1.134932 0.500365
C -1.612438 0.060443 0.401128
C -1.546665 0.917753 -0.742784
H 0.750582 0.978205 1.329068
H 2.580147 1.577068 0.843966
H 2.361227 -0.06344 -0.982092
H -0.983705 -2.091542 -0.046884
H -0.175684 -1.366075 1.421478
H -2.433776 0.081146 1.243489
H -2.262604 1.676916 -0.65981
H -0.709881 0.897931 -1.430088
