14

O 0.691268 0.886671 -0.040486
C 2.704754 -0.557718 -0.238
C 1.426953 -0.235323 0.200097
C -0.651357 0.868834 0.253689
C -1.346163 -0.277873 -0.345183
C -2.762056 -0.64764 0.064211
H 3.352929 0.039478 -1.023972
H 3.167375 -1.390433 0.27567
H 0.824509 -0.977529 0.865326
H -0.873911 0.89585 1.41082
H -0.968721 1.882008 0.013296
H -0.790057 -0.726257 -1.405744
H -3.046451 -1.420828 -0.691186
H -3.49711 -0.258841 1.104737
