14

O 0.503623 -1.001165 -0.372917
C 1.321688 1.057433 0.524065
C 1.43189 0.026603 -0.311025
C -0.309609 -1.133696 0.23107
C -1.47399 -0.08112 0.22717
C -1.425471 1.074356 -0.433649
H 0.513662 1.180963 1.22335
H 2.124057 1.796196 0.505612
H 2.222814 -0.12447 -1.024819
H -0.865912 -2.108007 0.075924
H -0.115563 -1.212644 1.372582
H -2.295084 -0.300913 0.904281
H -2.230674 1.806513 -0.390507
H -0.61733 1.323899 -1.10458
