14

O -1.270876 -1.360376 0.033964
C -1.196555 1.0437 -0.539756
C -1.692415 -0.164261 0.235981
C 2.022458 -0.792829 -0.431744
C 1.386297 -0.102703 0.556495
C 0.728155 1.207298 0.203556
H -0.972155 0.833596 -1.648115
H -1.677655 2.046046 -0.451228
H -2.418686 0.090712 1.112019
H 2.118364 -0.426901 -1.492971
H 2.621003 -1.736472 -0.190356
H 1.467068 -0.574113 1.565906
H 1.108209 1.676828 -0.699046
H 0.461071 1.863682 1.097224
