14

O 0.673083 0.974137 -0.288256
C 2.136702 -0.926926 -0.162382
C 1.411247 0.045005 0.385626
C -0.707951 1.075996 0.228115
C -1.60549 0.066459 -0.406082
C -1.881285 -1.145625 0.142142
H 2.134375 -1.066088 -1.274225
H 2.696947 -1.632749 0.434065
H 1.392658 0.128095 1.49712
H -0.702559 0.986299 1.3153
H -1.069403 2.064978 -0.004572
H -1.907991 0.249836 -1.43346
H -2.488512 -1.865986 -0.437655
H -1.542948 -1.427255 1.16646
