14

O -1.070787 -1.224909 -0.168318
C -2.014745 0.926486 -0.372803
C -1.647601 -0.202366 0.358421
C 1.481468 -1.096318 0.103828
C 1.664804 0.16615 -0.401342
C 1.666232 1.326698 0.408535
H -1.591215 0.795166 -1.443716
H -2.506609 1.886229 -0.054763
H -1.968766 -0.17725 1.407561
H 1.373298 -1.377228 1.122048
H 1.599376 -1.957184 -0.548393
H 1.629856 0.231837 -1.528908
H 1.640715 2.408636 -0.044256
H 1.706771 1.221413 1.543748
