14

O -0.91843 -1.153729 -0.124276
C -1.288813 1.258645 0.256684
C -1.472628 0.051679 -0.344711
C 0.562175 -1.100785 0.523186
C 1.422482 -0.235859 -0.358631
C 1.694163 1.044438 -0.060426
H -0.680673 1.415434 1.122776
H -1.958261 2.080694 -0.016201
H -2.191723 -0.033483 -1.178392
H 0.420299 -0.787479 1.569687
H 0.821493 -2.134187 0.464553
H 1.766825 -0.711037 -1.282666
H 2.233768 1.711466 -0.713087
H 1.461437 1.525206 0.900449
