14

O -0.485786 -1.28508 -0.269188
C -1.560962 0.859046 -0.319839
C -1.27566 -0.312412 0.287689
C 0.98523 -1.056184 0.168269
C 1.426635 0.309224 -0.304449
C 0.925048 1.377366 0.353561
H -1.215823 0.997924 -1.351685
H -2.153311 1.611007 0.186107
H -1.53766 -0.465881 1.338362
H 0.989005 -1.14962 1.278522
H 1.530015 -1.918709 -0.253425
H 1.748096 0.403844 -1.358081
H 0.995096 2.393828 -0.082592
H 0.529796 1.362175 1.367317
