14

O 1.698546 -1.198218 0.180734
C 0.968303 1.021376 -0.138157
C 1.953639 -0.092787 -0.200433
C -2.750817 -0.575968 0.061523
C -1.567521 0.146955 -0.415103
C -0.300976 0.537227 0.473804
H 1.406871 1.808058 0.482987
H 0.852738 1.57122 -1.021122
H 2.789727 0.112269 -0.823421
H -3.150912 -1.03327 1.276325
H -3.692811 -0.787123 -0.52204
H -1.309629 0.537443 -1.556913
H 0.015364 -0.362332 1.194682
H -0.795976 1.283755 1.260471
