14

O 0.712608 0.811121 -0.216587
C 2.560071 -0.625227 -0.147104
C 1.433132 -0.171162 0.360623
C -0.621967 0.942015 0.220941
C -1.66107 0.035233 -0.466424
C -2.388711 -0.937333 0.129773
H 2.97606 -0.213681 -1.048363
H 3.227504 -1.325422 0.375744
H 1.091721 -0.469647 1.370466
H -0.636844 0.807108 1.291455
H -0.930141 1.988574 0.045182
H -1.813696 0.281811 -1.507815
H -3.151325 -1.608214 -0.389241
H -2.398611 -1.157068 1.20585
