14

O -0.516837 -1.428658 -0.151728
C -1.438123 0.813377 -0.320982
C -1.300994 -0.39688 0.22897
C 1.2074 -0.951057 0.101127
C 1.365991 0.424398 -0.290892
C 0.73214 1.449974 0.364419
H -0.967298 1.041108 -1.333067
H -2.149668 1.528756 0.109701
H -1.904599 -0.706496 1.109638
H 1.325126 -1.149231 1.155664
H 1.658276 -1.634637 -0.585536
H 1.626348 0.557354 -1.373151
H 0.755729 2.445097 -0.048173
H 0.429731 1.378121 1.437912
