14

O 0.404806 0.890324 -0.527758
C 1.613925 -0.97914 0.511496
C 1.534214 0.020659 -0.376484
C -0.262162 1.052682 0.255665
C -1.544936 0.12307 0.366563
C -1.714176 -1.05939 -0.343734
H 0.659209 -1.587467 1.120515
H 2.618041 -1.483479 0.378312
H 2.208069 0.389732 -1.105385
H 0.043326 1.157758 1.32299
H -0.805337 2.038153 0.198729
H -2.391083 0.395876 1.075785
H -2.521976 -1.767006 -0.336922
H -0.799991 -1.463827 -0.981809
