14

O -0.873682 -0.832937 -0.318951
C -2.74881 0.52504 -0.003081
C -1.418979 0.331917 -0.045729
C 0.909728 -0.969145 0.522887
C 1.731533 -0.118557 -0.338159
C 2.448705 0.967967 0.074026
H -3.513655 -0.289444 -0.122619
H -3.090826 1.524277 0.301612
H -0.635373 1.141017 0.155254
H 0.653145 -0.529087 1.501741
H 0.946268 -2.02804 0.431985
H 1.862529 -0.499275 -1.381417
H 2.969663 1.533863 -0.73304
H 2.409956 1.28264 1.114235
