14

O -0.768705 -0.839359 -0.324348
C -1.758836 1.269599 0.372672
C -1.77499 0.020172 -0.217331
C 0.267775 -0.785928 0.532835
C 1.632133 -0.561455 -0.305715
C 2.320917 0.748808 -0.135819
H -0.786008 1.604598 0.847128
H -2.583717 1.977642 0.266889
H -2.57029 -0.44125 -0.792423
H 0.195817 0.202355 1.28519
H 0.384905 -1.754594 1.1015
H 2.030536 -1.459987 -1.165146
H 3.302536 0.66832 -0.825547
H 1.885914 1.720448 0.618298
