14

O -0.138311 -1.331161 0.00764
C -1.156989 0.811296 0.3161
C -1.334708 -0.542906 -0.392918
C 0.825606 -1.048197 0.081286
C 1.391348 0.418601 0.022092
C 0.271511 1.406236 -0.214954
H -1.929703 1.509847 -0.045754
H -1.141344 0.793352 1.432758
H -2.136206 -1.116995 0.130788
H 1.662562 -1.770846 0.261763
H 2.266683 0.433111 -0.596471
H 1.796732 0.584195 1.015794
H 0.178445 1.608249 -1.323759
H 0.465833 2.384036 0.277821
