14

O -1.58539 -1.231792 -0.305542
C -0.89217 1.150454 -0.059233
C -1.507601 -0.192101 0.382742
C 1.918237 -1.029267 0.217499
C 1.355291 -0.019772 -0.448206
C 0.629138 1.158137 0.130362
H -1.105576 1.305429 -1.152932
H -1.369469 2.018431 0.447047
H -1.81872 -0.093336 1.516547
H 1.936679 -1.064083 1.330828
H 2.325158 -1.927177 -0.273192
H 1.336159 0.054872 -1.553704
H 1.098695 2.075558 -0.438157
H 0.874909 1.351474 1.234121
