14

O -1.002365 0.996961 -0.179088
C 1.374441 0.403785 -0.328589
C 0.207464 1.327746 0.144309
C -1.428256 -0.620829 0.151812
C -0.268345 -1.325388 -0.164134
C 1.019618 -0.783179 0.327564
H 1.204916 0.267913 -1.432581
H 2.304867 0.812481 0.012192
H 0.395567 2.065578 0.96364
H -1.659666 -0.320454 1.14997
H -2.286658 -0.853796 -0.390835
H -0.246174 -1.838892 -1.140847
H 1.864481 -1.542616 0.258395
H 0.809932 -0.755571 1.386777
