14

O 0.502579 -0.991002 -0.345105
C 1.356694 0.9803 0.575888
C 1.354094 0.106545 -0.402212
C -0.290089 -1.135211 0.265432
C -1.413473 -0.038165 0.299138
C -1.429358 1.02963 -0.549054
H 0.709067 0.794095 1.464564
H 2.058214 1.79648 0.855781
H 2.021146 0.10363 -1.33382
H -0.967467 -2.077156 0.075838
H -0.124424 -1.353583 1.476619
H -2.39621 -0.180693 0.725781
H -2.333251 1.702104 -0.606423
H -0.583371 1.459106 -1.04538
