14

O -0.453781 -0.873767 -0.559727
C -1.46127 1.021973 0.582237
C -1.521856 -0.009524 -0.319721
C 0.498371 -1.172349 0.354938
C 1.504603 0.020386 0.41327
C 1.44591 0.934346 -0.568045
H -0.69969 1.165366 1.2878
H -2.332137 1.66787 0.770014
H -2.299998 -0.099433 -1.161857
H 0.007961 -1.324098 1.386584
H 0.933485 -2.182848 0.036185
H 2.196394 0.097548 1.232359
H 2.114073 1.780391 -0.526409
H 0.725202 1.04479 -1.371402
