14

O -0.979253 1.051766 -0.099984
C 1.281509 0.440307 -0.349135
C 0.194002 1.331392 0.091343
C -1.376192 -0.593994 0.074892
C -0.271201 -1.413532 -0.127254
C 1.031042 -0.832567 0.356506
H 1.3017 0.272812 -1.391805
H 2.208099 0.89746 -0.024502
H 0.409049 2.094608 0.958033
H -1.82643 -0.333652 1.095153
H -2.154828 -0.760606 -0.671484
H -0.197472 -2.00599 -1.071827
H 1.85501 -1.542594 0.121248
H 1.05544 -0.682957 1.467026
