14

O -1.272613 -1.450511 0.51401
C 0.043653 1.676688 -0.538229
C -1.401153 0.249245 0.059913
C 0.655369 -2.104311 -0.077275
C 1.149373 -0.405347 -0.615643
C 0.765378 1.99993 0.432394
H 1.730362 1.428963 -0.926441
H -0.140718 3.178018 -0.64954
H -3.007548 0.29953 0.595821
H 1.671021 -2.689026 1.700699
H 1.078183 -3.679633 -1.487864
H 2.23777 -1.162006 -1.703503
H 1.522434 3.300359 0.199597
H -0.51844 2.533713 1.533349
