14

O 0.997701 -1.084118 -0.085835
C 2.61515 0.554826 0.202526
C 1.344814 0.121495 -0.392515
C -1.043566 -0.934558 0.364578
C -1.801306 0.002029 -0.382888
C -2.167666 1.250339 0.171344
H 3.21415 0.037872 1.090048
H 2.998386 1.477571 -0.17496
H 0.876135 0.624456 -1.305748
H -1.153255 -2.043906 0.254575
H -0.615203 -0.499226 1.330234
H -2.441281 -0.40594 -1.235203
H -2.969863 1.897854 -0.43687
H -1.766121 1.508718 1.193732
