14

O -0.536401 -1.376804 -0.209492
C -1.44199 0.779359 -0.313836
C -1.365125 -0.479213 0.270337
C 1.326711 -0.867086 0.139185
C 1.407184 0.433141 -0.328332
C 0.697267 1.406113 0.359148
H -1.097449 0.963984 -1.337632
H -2.176501 1.457658 0.059068
H -1.982489 -0.744084 1.191621
H 1.245742 -0.998446 1.256083
H 1.733499 -1.753258 -0.351651
H 1.650814 0.644736 -1.352152
H 0.528149 2.450208 -0.042707
H 0.534333 1.371746 1.43986
