14

O -0.644929 -1.057263 -0.302537
C -1.753798 1.097741 -0.214269
C -1.360889 -0.088369 0.318119
C 0.686367 -1.138906 0.192755
C 1.55567 -0.057949 -0.337772
C 1.506125 1.161413 0.249283
H -1.484282 1.347763 -1.23578
H -2.448811 1.708778 0.348104
H -1.610296 -0.374029 1.371337
H 0.681422 -1.10673 1.261999
H 0.967634 -2.139153 -0.192565
H 2.199706 -0.31464 -1.214674
H 2.019024 1.99077 -0.254987
H 0.839964 1.368123 1.133145
