14

O 0.525404 -0.96681 -0.09552
C 2.014684 0.923975 0.134257
C 1.626514 -0.243179 -0.424495
C -0.23566 -0.615998 0.524081
C -1.262304 0.404157 -0.10942
C -2.588289 0.424922 -0.168002
H 1.27052 1.441935 0.824501
H 2.975654 1.327654 -0.13139
H 2.271097 -0.717552 -1.201809
H -0.852894 -1.468666 0.852879
H 0.016285 -0.046764 1.502843
H -0.861655 1.246663 -0.622597
H -3.01089 1.278545 -0.772367
H -3.336639 -0.342029 0.261735
