14

O -0.440516 -1.523556 0.124338
C -1.112098 0.812242 0.072561
C -1.225802 -0.697478 -0.246986
C 1.418485 -0.723705 0.119277
C 1.373043 0.608942 -0.340678
C 0.173339 1.459419 0.275809
H -1.652661 1.190856 -0.949293
H -1.919331 0.932905 0.853081
H -2.250502 -1.015808 -0.724464
H 1.25753 -0.854752 1.229674
H 1.908225 -1.579835 -0.499906
H 1.485712 0.695182 -1.461221
H 0.050104 2.551008 -0.038958
H 0.569229 1.471058 1.3036
