14

O -0.540933 -0.982416 -0.555291
C -1.311821 1.055303 0.485102
C -1.482365 -0.080405 -0.251817
C 0.456739 -1.084094 0.286237
C 1.539227 -0.026368 0.340972
C 1.378793 1.060551 -0.403425
H -0.379135 1.408391 0.978498
H -2.197639 1.798671 0.38276
H -2.542798 -0.352628 -0.679481
H 0.048182 -1.283675 1.290383
H 0.847052 -2.066273 0.170381
H 2.149537 -0.054518 1.229288
H 2.012002 1.902473 -0.24991
H 0.720193 1.104191 -1.315586
