14

O -1.435028 -1.302245 0.052549
C -1.099349 0.898588 -0.489327
C -1.798039 -0.126734 0.271844
C 2.284664 -0.732918 -0.402041
C 1.384541 -0.123911 0.40763
C 0.639103 1.190971 0.202587
H -0.927189 0.665835 -1.573143
H -1.49976 1.905308 -0.464971
H -2.616566 0.188583 1.112112
H 2.835999 -0.195541 -1.319795
H 2.698664 -1.665464 -0.216613
H 1.140358 -0.704135 1.325448
H 1.121511 1.765253 -0.648183
H 0.667273 1.764475 1.246302
