14

O 1.034965 1.300216 0.229255
C 0.785283 -1.06374 -0.146698
C 1.564595 0.313526 -0.284269
C -1.819274 0.890149 -0.081119
C -1.437849 -0.36079 -0.203698
C -0.177981 -0.969477 0.458376
H 0.823944 -1.486839 -1.081661
H 1.72157 -1.53731 0.291976
H 2.530287 0.398746 -0.909005
H -1.326213 1.51359 0.63814
H -2.80361 1.381961 -0.476645
H -1.955168 -0.986597 -0.92103
H -0.530755 -1.932986 0.890091
H 0.045691 -0.402068 1.383458
