14

O 1.247925 1.355453 0.274488
C 0.749369 -1.018331 -0.096109
C 1.468434 0.330567 -0.366498
C -1.906866 0.823236 -0.042787
C -1.409078 -0.392305 -0.266582
C -0.210246 -0.981721 0.475233
H 0.77161 -1.527815 -1.062631
H 1.619818 -1.509777 0.468512
H 2.301009 0.304731 -1.136939
H -1.532055 1.417341 0.788029
H -2.782939 1.185904 -0.627702
H -1.762437 -0.937269 -1.135665
H -0.659376 -1.929521 0.934359
H -0.15183 -0.342422 1.368979
