14

O 0.38476 -0.402055 0.58076
C 2.80002 0.365956 -0.504647
C 1.609305 -0.503199 0.024047
C -0.488233 0.926651 0.315032
C -1.998126 0.416592 0.021775
C -2.356558 -0.865091 -0.328955
H 2.81687 1.710353 -0.698346
H 3.618794 -0.373074 -0.916434
H 1.72218 -1.779033 0.21801
H -0.403869 1.651227 1.295838
H 0.017108 1.47962 -0.739182
H -2.795361 1.213815 -0.095538
H -3.531921 -1.002233 -0.439959
H -1.725583 -1.804638 -0.29134
