14

O 2.193912 0.884464 -0.00757
C 0.627883 -0.859931 0.501015
C 1.659362 -0.170595 -0.367479
C -1.696421 1.327241 0.106031
C -1.912506 0.030445 -0.053847
C -0.847824 -1.052864 -0.174222
H 1.019801 -1.856827 0.63645
H 0.631582 -0.314461 1.393455
H 1.746954 -0.635099 -1.435781
H -0.736514 1.770467 0.482245
H -2.49686 2.110894 0.124848
H -2.906098 -0.421414 -0.529066
H -0.916245 -1.299015 -1.269827
H -1.334557 -1.796543 0.367373
