14

O -0.912434 -1.26877 -0.175231
C -1.510704 0.948116 -0.291708
C -1.429191 -0.256022 0.370743
C 1.385522 -1.059193 0.08013
C 1.530917 0.216817 -0.361128
C 0.986358 1.31044 0.308883
H -1.367212 0.91527 -1.372052
H -1.980374 1.773841 0.210304
H -1.710559 -0.345238 1.425996
H 1.162314 -1.309449 1.118362
H 1.726639 -1.95417 -0.502942
H 1.986163 0.341714 -1.339153
H 1.055948 2.283049 -0.199095
H 0.617964 1.319671 1.318737
