14

O 1.542223 -1.328157 -0.197682
C 1.141894 1.007077 -0.304449
C 1.569079 -0.230866 0.343257
C -1.831607 -1.022934 0.13864
C -1.602199 0.211701 -0.408711
C -0.816055 1.221465 0.334684
H 1.596654 1.93259 0.129896
H 1.079562 0.94673 -1.390485
H 1.912107 -0.154286 1.418084
H -1.552457 -1.304952 1.157825
H -2.419511 -1.812924 -0.367923
H -1.915942 0.444337 -1.463522
H -0.704423 1.112271 1.41896
H -0.863181 2.264181 0.055484
