14

O -1.705464 -1.276216 -0.455618
C -0.960685 1.064677 -0.153034
C -1.209869 -0.358349 0.357197
C 1.904602 -0.846482 0.390451
C 1.432539 0.068902 -0.420751
C 0.564732 1.206259 0.190554
H -1.186664 1.228302 -1.190015
H -1.758977 1.666472 0.434494
H -0.870185 -0.4129 1.718847
H 1.546839 -0.865634 1.436503
H 2.510363 -1.695479 -0.023499
H 1.640399 -0.002157 -1.561282
H 0.913926 2.207798 -0.271573
H 0.763684 1.212359 1.275931
