14

O -1.102096 1.100483 0.071215
C 1.236663 0.372124 -0.005795
C 0.068764 1.347454 -0.135453
C -1.312696 -0.905646 0.166249
C -0.139246 -1.323723 -0.381893
C 1.096427 -0.697909 0.289153
H 1.573766 0.452696 -1.138497
H 2.052709 1.024738 0.377143
H 0.418306 2.310086 -0.519496
H -1.363938 -0.864643 1.294482
H -2.256565 -0.867577 -0.367458
H -0.096593 -1.444123 -1.44727
H 1.894588 -1.395036 0.17528
H 0.868511 -0.769836 1.393316
