14

O 0.991866 -1.374167 -0.136854
C 1.241031 0.961501 -0.111054
C 1.509957 -0.389369 0.318637
C -1.735796 -0.883714 -0.237676
C -1.387798 0.20953 0.38661
C -0.675997 1.318047 -0.204337
H 1.682464 1.784102 0.585646
H 1.363446 1.264833 -1.158439
H 2.21925 -0.311202 1.300805
H -1.619307 -1.097093 -1.400942
H -2.105136 -1.771249 0.319321
H -1.588628 0.190997 1.422788
H -0.682148 2.229877 0.408058
H -0.926081 1.578468 -1.246716
