14

O -0.699342 -1.222166 -0.188538
C -1.356192 1.105373 -0.221542
C -1.609874 -0.260209 0.237599
C 0.70809 -1.073126 0.249926
C 1.210573 0.161382 -0.462312
C 1.700873 1.231525 0.281382
H -0.450371 1.456486 -1.013054
H -2.224026 1.945368 -0.036802
H -2.295434 -0.708877 1.176432
H 0.831138 -1.105602 1.286323
H 1.07486 -2.032099 -0.134288
H 0.985842 0.170533 -1.684691
H 2.189814 2.023963 -0.199893
H 1.677915 1.115983 1.445326
