14

O 0.883167 -1.326456 -0.252286
C 1.306562 0.95542 -0.141267
C 1.385206 -0.425572 0.36924
C -1.466338 -1.000338 -0.125964
C -1.449074 0.269444 0.345529
C -0.736088 1.402102 -0.151438
H 1.767965 1.652498 0.55788
H 1.59573 1.067497 -1.247215
H 1.722931 -0.59878 1.385665
H -1.215091 -1.230312 -1.202089
H -1.849059 -1.908515 0.401037
H -1.669861 0.317901 1.397463
H -0.83993 2.392732 0.295717
H -0.578274 1.485285 -1.247262
