14

O -1.148996 -1.311073 -0.095945
C -0.716037 0.967278 0.445467
C -1.434445 -0.154905 -0.277236
C 1.32936 -1.063246 0.301058
C 1.440499 0.09842 -0.330229
C 0.556654 1.305405 -0.089878
H -1.368709 1.858106 0.440856
H -0.588479 0.65533 1.465194
H -2.183529 0.119068 -1.05394
H 0.693321 -1.251268 1.153814
H 2.023786 -1.901572 0.041928
H 2.162297 0.195877 -1.139423
H 0.505192 1.869016 -1.056384
H 1.020052 2.069868 0.594657
