14

O 0.775793 -1.285834 0.250182
C 1.450063 0.996593 0.146641
C 1.318526 -0.222928 -0.419373
C -1.139891 -1.147014 0.202656
C -1.40034 0.161464 -0.399504
C -1.066475 1.400826 0.146072
H 1.46511 1.033026 1.259434
H 1.995458 1.822272 -0.24007
H 1.367489 -0.349248 -1.59257
H -1.209579 -2.121037 -0.281227
H -1.341862 -1.324816 1.296409
H -1.406677 0.047405 -1.557377
H -1.070688 2.242807 -0.508374
H -0.885717 1.605303 1.255226
