14

O -0.712951 -1.021156 -0.215649
C -2.043105 0.885439 -0.368951
C -1.371159 0.001844 0.405299
C 0.686186 -1.076253 0.11127
C 1.462053 0.088149 -0.418278
C 1.947368 1.050093 0.376745
H -2.025239 0.819507 -1.539376
H -2.720886 1.608206 0.079363
H -1.312 0.032917 1.544314
H 0.799726 -1.141954 1.240393
H 1.114952 -2.005661 -0.286784
H 1.522096 0.095068 -1.52408
H 2.564368 1.898563 0.006059
H 1.752492 1.021932 1.463214
