14

O -0.218747 -1.482847 0.053041
C -1.203614 0.820108 -0.11127
C -1.203173 -0.736341 -0.051003
C 1.49706 -0.623853 0.128185
C 1.197925 0.575934 -0.323868
C 0.079978 1.376291 0.29364
H -1.407812 0.979347 -1.220318
H -2.089304 1.194497 0.437113
H -2.239914 -1.257794 -0.119982
H 1.341183 -0.861643 1.142131
H 2.169407 -1.254622 -0.47702
H 1.495994 0.781785 -1.399123
H 0.155993 2.449965 0.114252
H 0.21338 1.245733 1.42871
