14

O -2.003481 -1.290053 -0.250428
C -0.81765 0.927312 -0.349882
C -1.454655 -0.262107 0.344773
C 2.129695 -0.895308 0.193104
C 1.614958 0.259512 -0.309095
C 0.563148 1.145009 0.285519
H -0.835161 0.703195 -1.44336
H -1.531771 1.693918 -0.079115
H -1.078403 -0.159246 1.596385
H 1.614192 -1.450347 1.173836
H 2.908114 -1.37632 -0.50899
H 1.992562 0.62407 -1.290976
H 0.83753 2.144652 0.138795
H 0.487945 0.95378 1.355581
