14

O -1.08867 -1.428501 -0.189039
C -0.97581 0.980284 -0.266278
C -1.551048 -0.381402 0.195923
C 1.767206 -0.831653 0.1635
C 1.428917 0.317157 -0.331128
C 0.482148 1.204241 0.341887
H -0.801579 0.874552 -1.3875
H -1.604961 1.859692 -0.067733
H -2.398224 -0.390743 1.028892
H 1.327594 -1.05673 1.086144
H 2.351722 -1.60058 -0.37081
H 1.851102 0.733318 -1.226895
H 0.730485 2.308458 0.245735
H 0.392156 1.085774 1.38547
