14

O -0.673435 -1.097187 -0.312975
C -1.529288 1.215292 -0.069293
C -1.295141 -0.159032 0.380016
C 0.670854 -1.207279 0.202163
C 1.608711 -0.162395 -0.380545
C 1.219891 1.331579 0.07948
H -1.200685 1.530373 -1.110486
H -2.159912 1.867498 0.398634
H -1.439908 -0.458925 1.433557
H 0.635079 -1.178649 1.338081
H 1.147178 -2.232374 -0.066378
H 2.397168 -0.52849 -1.284281
H 1.647358 2.225072 -0.396375
H 0.146105 1.611903 0.983511
