14

O 0.755829 0.942735 -0.082224
C 2.4752 -0.621278 -0.254893
C 1.394825 -0.210321 0.385884
C -0.630319 0.944039 0.174661
C -1.50474 -0.131559 -0.488575
C -2.444238 -0.883486 0.159615
H 2.802659 -0.110116 -1.21649
H 2.99738 -1.512158 0.09773
H 1.027305 -0.640737 1.351242
H -0.851236 0.998452 1.240222
H -1.009687 1.934723 -0.19035
H -1.29442 -0.298342 -1.591273
H -3.036207 -1.627606 -0.296824
H -2.591329 -0.789537 1.258763
