14

O -0.842563 -0.685393 -0.461374
C -2.83684 0.39883 0.303919
C -1.549016 0.439195 -0.304795
C 0.823337 -0.872402 0.565263
C 1.985239 -0.295387 -0.205589
C 2.46896 0.96762 0.029775
H -3.176946 -0.679713 0.627986
H -3.370808 1.278159 0.42267
H -1.199245 1.45253 -0.779516
H 0.564269 -0.667045 1.594324
H 0.699138 -2.028724 0.413241
H 2.41227 -0.87333 -1.005417
H 3.220914 1.461632 -0.61878
H 2.15548 1.362998 1.045988
