14

O 0.592743 0.895687 -0.335039
C 2.039278 -1.002565 -0.130396
C 1.430384 0.083276 0.410419
C -0.721873 1.076412 0.292318
C -1.631303 0.195545 -0.427625
C -1.697875 -1.157551 0.066546
H 1.860269 -1.505572 -1.304829
H 2.873455 -1.281141 0.725372
H 1.62105 0.475113 1.581162
H -0.58234 0.899522 1.426104
H -1.153368 2.09239 0.219479
H -2.054365 0.416965 -1.505375
H -2.274151 -1.846232 -0.471474
H -1.274074 -1.542104 1.066969
