14

O 2.310264 -0.945036 -0.315725
C 0.912801 0.989923 0.190696
C 1.344073 -0.442341 0.384089
C -2.217286 -0.920536 0.005863
C -1.689204 0.266703 0.288065
C -0.679685 0.949722 -0.539839
H 0.958304 1.69019 1.07606
H 1.609551 1.377435 -0.594304
H 0.636368 -1.091337 1.177708
H -1.907857 -1.480068 -0.91355
H -2.855852 -1.507155 0.663804
H -2.020643 0.802591 1.167824
H -0.867254 2.027742 -0.750052
H -0.534141 0.429878 -1.504831
