14

O -1.28049 -1.237323 -0.2822
C -0.968593 1.205369 -0.124653
C -1.482188 -0.034679 0.378292
C 1.882289 -1.072348 0.151633
C 1.169356 -0.120655 -0.422228
C 0.546796 1.103697 0.221134
H -0.994941 1.121057 -1.26276
H -1.447475 2.126124 0.296404
H -2.217006 0.294692 1.49237
H 2.135516 -1.160855 1.239825
H 2.482577 -1.67764 -0.439368
H 1.183925 -0.191499 -1.52294
H 1.036048 2.085735 -0.141982
H 0.579166 1.011012 1.303875
