14

O -1.090771 -0.781284 -0.128391
C 1.302672 -0.272333 0.124756
C 0.197222 -1.402254 0.281074
C -1.354075 0.20524 -0.04529
C -0.303348 1.273224 0.245691
C 1.024906 0.712356 -0.353601
H 1.761098 -0.107508 1.136
H 2.164259 -0.810643 -0.331658
H 0.239389 -2.228343 -0.447623
H -2.365505 0.556261 -0.311654
H -0.178682 1.276354 1.362384
H -0.618906 2.289952 -0.115343
H 1.79082 1.536245 -0.312204
H 0.786675 0.653501 -1.461332
