14

O 0.500471 -0.949173 -0.509522
C 1.415068 1.027745 0.60322
C 1.468583 -0.00185 -0.242456
C -0.477393 -1.162132 0.351531
C -1.494893 -0.027263 0.281412
C -1.391565 1.0175 -0.578248
H 0.517124 1.304568 1.184314
H 2.319374 1.673939 0.606215
H 2.318263 -0.122627 -0.915072
H -1.043091 -2.098574 0.066037
H -0.171515 -1.294931 1.393847
H -2.303137 0.019036 1.045258
H -2.109666 1.826852 -0.569879
H -0.560183 1.147417 -1.241074
