14

O -0.407474 -1.19027 -0.293854
C -1.637256 0.866454 -0.289473
C -1.286948 -0.316651 0.263018
C 1.009994 -1.114635 0.211478
C 1.361309 0.277063 -0.28741
C 0.955897 1.356198 0.326066
H -1.245483 1.052982 -1.297398
H -2.232883 1.662476 0.052053
H -1.569604 -0.638221 1.312961
H 1.070419 -1.07542 1.369933
H 1.528162 -1.971387 -0.216282
H 1.557063 0.339255 -1.383255
H 1.07353 2.260988 -0.140393
H 0.619611 1.39241 1.360582
