14

O -1.965631 -1.374485 -0.002791
C -1.570725 0.872348 -0.584787
C -1.772176 -0.166278 0.367096
C 2.522654 -0.702935 -0.466887
C 1.710209 -0.06412 0.441926
C 1.135431 1.28405 0.258328
H -1.442706 0.531223 -1.632918
H -2.010007 1.794652 -0.345821
H -1.77763 0.254294 1.496197
H 2.872669 -0.338662 -1.413742
H 2.996582 -1.641391 -0.115326
H 1.478456 -0.539534 1.455325
H 1.329819 1.815212 -0.670497
H 0.712911 1.845523 1.06807
