14

O -0.467024 -0.908706 -0.561298
C -1.53037 0.909065 0.640748
C -1.455169 0.019353 -0.368161
C 0.411498 -1.035527 0.41743
C 1.54993 -0.058752 0.297186
C 1.511094 0.995148 -0.54254
H -0.767648 1.130179 1.368616
H -2.431598 1.557887 0.591189
H -2.205669 -0.126182 -1.12166
H -0.105942 -0.830742 1.436085
H 0.766071 -2.136572 0.413945
H 2.363331 -0.229836 0.963175
H 2.285732 1.728731 -0.600915
H 0.626717 1.23735 -1.161343
