14

O -1.120419 -1.150939 -0.566989
C -0.59954 0.969845 0.390429
C -1.460875 -0.260518 0.158846
C 1.488974 -1.008771 0.435388
C 1.437275 0.137736 -0.253538
C 0.282942 1.169373 -0.279108
H -1.370088 1.769345 0.462197
H -0.399369 0.865118 1.468724
H -2.343893 -0.305867 0.836476
H 0.732673 -1.271725 1.136049
H 2.371838 -1.627001 0.395787
H 2.276945 0.370181 -0.906257
H 0.020316 1.237099 -1.350196
H 0.801366 2.165205 -0.179612
