14

O -0.730169 -1.232537 -0.30011
C -1.619527 1.072715 -0.170962
C -1.384575 -0.215649 0.293586
C 1.33148 -1.083504 0.289151
C 1.4341 0.117928 -0.433051
C 1.041994 1.255156 0.233709
H -1.501308 1.37465 -1.227947
H -2.348972 1.759125 0.398267
H -1.748647 -0.60286 1.356726
H 0.884445 -1.077884 1.255362
H 1.720671 -2.022146 -0.170865
H 1.953654 0.008864 -1.449892
H 1.060664 2.212372 -0.214898
H 0.715032 1.149439 1.296389
