14

O -0.434434 -1.359319 -0.233553
C -1.454709 0.834979 -0.209165
C -1.29511 -0.477315 0.172146
C 1.236043 -0.928633 0.215573
C 1.292197 0.392972 -0.308017
C 0.719255 1.430191 0.286079
H -1.246019 1.133901 -1.255826
H -2.049104 1.542067 0.404012
H -1.911893 -0.956195 1.104649
H 1.270446 -1.007393 1.397158
H 1.709692 -1.676392 -0.381733
H 1.593415 0.404983 -1.367236
H 0.734113 2.360565 -0.256751
H 0.207963 1.49417 1.238036
