14

O 2.107638 0.826585 -0.131626
C 0.514589 -0.952556 -0.304073
C 1.318823 0.049919 0.43196
C -1.304947 1.349639 -0.092518
C -1.646392 0.078031 0.279379
C -0.921888 -1.190998 -0.118305
H 0.651365 -0.72107 -1.396243
H 1.035796 -2.025479 -0.184173
H 1.244375 0.042821 1.638101
H -0.491228 1.690309 -0.81602
H -2.013385 2.097094 0.18865
H -2.597496 -0.065132 0.773198
H -1.469413 -1.686929 -1.056621
H -1.212598 -2.063433 0.699365
