14

O -0.630309 -1.454578 -0.30571
C -1.269407 0.826757 -0.17048
C -1.318569 -0.602338 0.170556
C 1.636353 -0.710599 0.280265
C 1.35541 0.435998 -0.304058
C 0.325592 1.38862 0.251431
H -1.363372 1.014737 -1.298964
H -2.050972 1.429833 0.33861
H -1.78162 -0.799127 1.185982
H 1.393094 -0.863559 1.334517
H 2.257552 -1.417033 -0.188251
H 1.585626 0.539754 -1.373126
H 0.38512 2.410849 -0.168886
H 0.282451 1.388041 1.309159
