14

O -0.763605 -1.249438 -0.361972
C -1.578528 0.894158 -0.25717
C -1.328695 -0.336819 0.347267
C 1.268262 -1.019632 0.25908
C 1.498025 0.222364 -0.34087
C 0.986594 1.372384 0.259488
H -1.621795 1.056138 -1.361252
H -2.238599 1.590773 0.404018
H -1.386902 -0.524638 1.514085
H 1.039106 -1.181503 1.364539
H 1.731032 -1.945996 -0.118606
H 1.738586 0.263981 -1.442174
H 0.78487 2.343582 -0.197107
H 0.842574 1.394743 1.378197
