14

O 0.5862 -0.975089 0.125771
C 2.334503 0.791599 -0.138777
C 1.692682 -0.368343 -0.481086
C -0.457883 0.174524 0.860494
C -1.781647 -0.217638 0.279237
C -2.476283 0.429149 -0.659859
H 1.952159 1.494667 0.756817
H 3.22654 1.178182 -0.885234
H 2.241993 -0.957619 -1.278726
H -0.364946 -0.010111 1.981944
H -0.103046 1.175522 0.507854
H -2.166715 -1.15716 0.669237
H -3.377253 0.056334 -1.20571
H -2.034076 1.343621 -1.053196
