14

O 1.503339 -1.30474 -0.147473
C 1.057737 1.052328 -0.33301
C 1.556539 -0.172661 0.362916
C -1.914951 -1.018299 0.128658
C -1.610056 0.244209 -0.366377
C -0.594829 1.077626 0.269325
H 1.46956 1.949958 0.081532
H 1.056089 1.171809 -1.407109
H 1.930534 -0.118242 1.352938
H -1.325039 -1.596394 1.079145
H -2.548042 -1.79557 -0.471475
H -1.87035 0.552373 -1.415441
H -0.449825 0.856728 1.263845
H -0.839714 2.167355 0.224262
