14

O -0.038815 -1.501828 -0.15774
C -1.380685 0.4914 -0.331761
C -1.056516 -0.872425 0.168641
C 1.612366 -0.377473 0.132733
C 1.143916 0.830075 -0.233481
C -0.161873 1.369287 0.348762
H -1.31217 0.686793 -1.428254
H -2.357456 0.788815 0.082615
H -1.680627 -1.286923 1.014572
H 1.402234 -0.821312 1.084225
H 2.368984 -0.852976 -0.481705
H 1.469539 1.195287 -1.211211
H -0.34459 2.452053 0.137022
H -0.209703 1.186152 1.406718
