14

O 1.616716 -1.434482 -0.073775
C 1.924039 0.939053 -0.476573
C 1.571595 -0.205121 0.328321
C -2.042768 -1.024086 -0.003881
C -1.859576 0.327858 -0.302424
C -1.291197 1.303001 0.443143
H 2.122806 1.94512 0.081089
H 2.033103 0.900158 -1.577075
H 1.442275 -0.060601 1.468508
H -1.700802 -1.515693 0.963888
H -2.660947 -1.759445 -0.613931
H -2.192646 0.713213 -1.333151
H -0.735465 1.191396 1.473602
H -1.436749 2.27856 0.046222
