14

O -1.187337 -1.345619 -0.040544
C -1.561655 1.030169 -0.395293
C -1.579625 -0.206857 0.382642
C 1.638617 -1.155022 -0.071716
C 1.788017 0.277645 -0.319331
C 0.943154 1.284508 0.358711
H -1.639239 1.047369 -1.496514
H -1.955151 1.941683 -0.002415
H -1.917443 -0.070798 1.467806
H 1.010776 -1.572238 0.873611
H 2.239097 -1.846242 -0.638496
H 2.43617 0.682166 -1.298113
H 0.982328 2.288533 -0.013744
H 0.376358 0.966002 1.305105
