14

O -1.378869 -1.392725 -0.156187
C -0.84861 0.982122 -0.370436
C -1.50419 -0.264294 0.287741
C 1.706669 -0.949868 0.084519
C 1.546307 0.360238 -0.304825
C 0.507167 1.153792 0.379842
H -0.705892 0.710988 -1.477853
H -1.511432 1.838304 -0.195909
H -1.991427 0.016415 1.251157
H 1.160526 -1.301898 0.980492
H 2.194255 -1.769876 -0.500327
H 2.060123 0.770893 -1.259118
H 0.947589 2.190975 0.28229
H 0.442258 0.936224 1.407611
