14

O -1.010506 -1.153183 -0.286896
C -1.641861 1.167898 0.316243
C -1.726367 -0.032192 -0.335505
C 0.771494 -0.932518 0.645337
C 1.643274 -0.248599 -0.245139
C 1.979661 1.064549 -0.170463
H -0.825242 1.389507 1.061291
H -2.283193 2.010184 0.121379
H -2.557696 -0.189482 -1.088857
H 0.431696 -0.443126 1.557667
H 0.8975 -2.030272 0.787667
H 2.107452 -0.821918 -1.042641
H 2.735381 1.444494 -0.860083
H 1.479015 1.733318 0.528002
