14

O 1.951098 -1.23976 0.522544
C 0.630805 0.8364 -0.451439
C 1.758146 -0.28237 -0.368336
C -2.411669 -0.58966 -0.337119
C -1.685425 0.56335 -0.142987
C -0.331369 0.609511 0.779691
H 1.424393 1.947951 -0.441983
H 0.100195 0.801046 -1.63639
H 2.673847 -0.038085 -0.907923
H -2.199969 -1.82841 0.131659
H -3.458793 -0.47564 -0.891409
H -2.164997 1.674628 -0.5632
H 0.013059 -0.519134 1.198778
H -0.54764 1.430022 1.652083
