14

O 0.408662 -0.393433 -0.153283
C 2.743881 0.43746 0.16084
C 1.79539 -0.490287 -0.176725
C -0.282588 0.350409 0.050677
C -1.703441 -0.220768 0.254716
C -2.975585 0.10533 -0.198407
H 2.354428 1.447153 0.255376
H 3.768563 0.143043 0.078035
H 2.102408 -1.44275 -0.451689
H -0.071414 0.773637 1.167566
H -0.212061 1.236104 -0.547572
H -1.711897 -1.114621 0.998871
H -3.848539 -0.464726 0.250408
H -3.072471 1.052801 -0.791909
