14

O -0.121574 -1.322729 -0.030342
C -1.190805 0.8136 0.26835
C -1.370565 -0.53796 -0.328776
C 0.842223 -1.035303 0.091909
C 1.394372 0.386423 0.072607
C 0.280755 1.421238 -0.21927
H -2.001706 1.466377 -0.026018
H -1.148786 0.890295 1.367094
H -2.110855 -1.200067 0.18501
H 1.681578 -1.812935 0.123667
H 2.200636 0.491037 -0.712949
H 1.955266 0.568581 1.013174
H 0.277602 1.553437 -1.306399
H 0.51202 2.348674 0.264431
