14

O -0.087288 -1.506583 -0.317794
C -1.363681 0.469285 -0.172703
C -1.086924 -0.995367 0.178457
C 1.611726 -0.354209 0.26623
C 1.14999 0.856037 -0.192308
C -0.092455 1.454704 0.207269
H -1.342779 0.560247 -1.265569
H -2.279498 0.969795 0.339412
H -1.568249 -1.579095 0.971784
H 1.443872 -0.75147 1.247324
H 2.307072 -0.913446 -0.291001
H 1.519959 1.143181 -1.182064
H -0.365968 2.451098 -0.289001
H -0.267606 1.585392 1.275565
