14

O -0.893032 -1.122622 -0.180703
C -1.20225 1.213339 0.305646
C -1.439817 0.0879 -0.377858
C 0.581606 -1.080992 0.570365
C 1.410448 -0.275086 -0.302636
C 1.551351 1.051721 -0.11464
H -0.590899 1.236608 1.184566
H -1.758823 2.111601 0.060004
H -2.156303 0.078014 -1.185776
H 0.376678 -0.712778 1.575341
H 0.794283 -2.166326 0.600054
H 1.769066 -0.793971 -1.199699
H 2.036528 1.678573 -0.85742
H 1.249743 1.510191 0.796233
