14

O 0.854235 -1.30875 0.167955
C 1.53215 1.007777 0.147614
C 1.501123 -0.278932 -0.32746
C -1.222867 -1.07381 0.245769
C -1.51465 0.164727 -0.421367
C -1.147582 1.391112 0.146107
H 1.075708 1.265655 1.086698
H 2.009436 1.751689 -0.497534
H 1.832376 -0.459083 -1.432909
H -1.65089 -1.984382 -0.341216
H -1.3245 -1.404041 1.4102
H -1.826508 0.099728 -1.448314
H -1.471505 2.352281 -0.363145
H -0.796912 1.389526 1.237404
