14

O -1.006523 -1.373091 -0.098788
C -1.202188 1.007084 -0.357102
C -1.572359 -0.275934 0.294929
C 1.58401 -1.065362 0.04269
C 1.433894 0.261336 -0.348247
C 0.737205 1.311245 0.372695
H -0.996883 1.110699 -1.414628
H -1.718054 1.867555 0.16695
H -2.196118 -0.152064 1.23959
H 1.052985 -1.450887 0.908161
H 2.007964 -1.857868 -0.604766
H 2.08113 0.654931 -1.196926
H 1.073651 2.273505 0.035267
H 0.564922 1.106042 1.411803
