14

O -1.908627 -1.184691 -0.28656
C -0.883198 1.040477 -0.159509
C -1.661056 -0.199204 0.32775
C 2.35376 -0.861267 0.220812
C 1.480937 -0.014862 -0.40778
C 0.570346 1.044444 0.190902
H -1.000369 1.092559 -1.247546
H -1.40651 1.890195 0.315984
H -2.055741 -0.14688 1.366626
H 2.484105 -0.921392 1.311049
H 3.202858 -1.429189 -0.182218
H 1.711391 -0.008786 -1.50356
H 0.93779 2.073413 0.021482
H 0.728014 0.959484 1.336103
