14

O -2.097483 -1.431199 -0.453932
C -1.472991 0.960756 -0.02618
C -1.904264 -0.396343 0.341483
C 2.459135 -0.797058 0.388874
C 1.887216 0.197674 -0.483151
C 1.180384 1.308077 0.156577
H -1.554503 1.179547 -1.156956
H -1.42352 1.961101 0.685857
H -2.149872 -0.46327 1.417774
H 2.222903 -0.795096 1.526192
H 3.14862 -1.654097 0.036756
H 1.889464 0.04011 -1.620614
H 1.222775 2.190847 -0.37315
H 1.242903 1.469345 1.267483
