14

O -0.686522 -1.034178 -0.304022
C -1.871705 1.051762 -0.143287
C -1.398259 -0.086198 0.389524
C 0.712472 -1.155091 0.196401
C 1.624148 -0.07958 -0.356918
C 1.613625 1.221482 0.118516
H -1.621173 1.329996 -1.18572
H -2.648451 1.643104 0.4162
H -1.651761 -0.360478 1.488077
H 0.683335 -1.113888 1.277116
H 1.112754 -2.092204 -0.190441
H 2.210035 -0.390663 -1.310382
H 2.303425 2.004277 -0.254734
H 0.929145 1.599591 1.004446
