14

O -0.258194 -0.861761 -0.397859
C -1.931329 0.731852 -0.018476
C -1.322946 -0.374464 0.321839
C 0.680987 -1.061554 -0.092675
C 1.608903 0.153032 0.203123
C 1.172242 1.395077 -0.117624
H -1.603198 1.368584 -0.878729
H -2.808574 0.942916 0.560766
H -1.476228 -0.964851 1.245843
H 0.816557 -1.58272 0.920829
H 1.281135 -1.839116 -0.669055
H 2.522399 -0.01058 0.803771
H 1.818202 2.220726 0.279048
H 0.241016 1.646715 -0.653887
