14

O -0.913192 -1.292517 -0.387429
C -1.497763 1.100863 -0.180014
C -1.416268 -0.264148 0.332819
C 1.513418 -1.188922 -0.198309
C 1.453092 0.145905 0.61072
C 0.792897 1.341909 -0.092458
H -1.607952 1.200699 -1.29053
H -2.004954 2.019969 0.408326
H -1.472893 -0.55011 1.568012
H 1.184343 -1.515424 -1.451609
H 1.579964 -2.200683 0.533547
H 1.821983 0.357885 1.817609
H 0.745774 1.370587 -1.296058
H 1.039835 2.367739 0.570967
