14

O -2.339542 -1.363558 -0.352756
C -1.353005 0.980602 -0.066409
C -2.077823 -0.356567 0.329383
C 2.537842 -0.922628 0.272342
C 2.041851 0.165214 -0.418329
C 1.27765 1.331286 0.175756
H -1.45329 1.21445 -1.115034
H -1.465551 1.738574 0.817121
H -2.341315 -0.327798 1.390789
H 2.421664 -1.034109 1.300057
H 3.020248 -1.644113 -0.385033
H 2.280034 0.139763 -1.556239
H 0.95797 2.286703 -0.554899
H 1.431704 1.444282 1.381378
