14

O -0.944761 -1.070739 -0.163416
C -1.410289 1.297298 0.1838
C -1.65869 0.070735 -0.274941
C 0.482187 -0.966929 0.583604
C 1.465822 -0.319812 -0.331668
C 2.036857 0.855093 -0.099989
H -0.527442 1.580482 0.737044
H -2.129562 2.091202 -0.039951
H -2.563965 -0.162305 -0.827911
H 0.306974 -0.410645 1.507398
H 0.692491 -2.02084 0.781654
H 1.670865 -0.846665 -1.26519
H 2.743312 1.28673 -0.801888
H 1.860692 1.407384 0.832334
