14

O 2.516775 0.618559 0.083812
C 0.343288 -0.51999 -0.563674
C 1.570641 -0.028807 0.363241
C -1.756974 1.214635 -0.301483
C -1.849859 -0.06053 0.22748
C -0.751064 -1.102036 0.205985
H -0.03347 0.151259 -1.443919
H 0.903278 -1.350733 -1.134743
H 1.41612 -0.29613 1.501998
H -0.899012 1.741823 -0.650238
H -2.714929 1.828424 -0.529148
H -2.729005 -0.403164 0.662442
H -1.316834 -2.046235 -0.22908
H -0.488764 -1.292508 1.343447
