14

O -0.540167 -1.305248 -0.160308
C -1.522786 0.839144 -0.371393
C -1.322265 -0.42608 0.259795
C 1.444276 -0.92272 0.120054
C 1.389767 0.393372 -0.312524
C 0.611743 1.302558 0.355026
H -1.425446 0.735534 -1.462044
H -2.088246 1.603855 0.088654
H -1.77791 -0.639951 1.218913
H 1.43117 -1.027881 1.215603
H 1.782527 -1.756426 -0.347613
H 1.717163 0.750637 -1.339442
H 0.747367 2.487019 0.271396
H 0.465229 1.219864 1.408591
