14

O -1.227346 -1.279995 -0.208833
C -1.221103 1.004064 -0.330863
C -1.297396 -0.242783 0.385068
C 1.444404 -1.166206 0.057534
C 1.462605 0.190516 -0.294076
C 0.745559 1.29967 0.334782
H -1.030651 0.976975 -1.446468
H -1.605736 2.018913 -0.030013
H -1.222054 -0.11903 1.503006
H 0.928692 -1.390176 0.967692
H 2.129326 -1.853828 -0.496702
H 1.89144 0.530971 -1.265347
H 1.047631 2.229698 -0.144823
H 0.684057 1.37581 1.445066
