14

O 0.412497 -0.626252 0.020239
C 2.519389 0.649756 -0.010493
C 1.863927 -0.479613 -0.243555
C -0.182833 0.153945 0.275378
C -1.776629 -0.312709 0.232957
C -2.823173 0.387068 -0.304141
H 2.092354 1.585292 0.344311
H 3.542359 0.831474 -0.302161
H 2.228801 -1.421806 -0.750236
H -0.147727 0.589468 1.360776
H -0.283119 1.159308 -0.403427
H -1.890313 -1.345094 0.60643
H -3.768937 -0.082631 -0.232052
H -2.732109 1.333779 -0.842295
