14

O -1.235289 -1.130297 -0.704076
C -0.618463 0.960904 0.375653
C -1.386657 -0.322985 0.243328
C 1.555283 -0.945256 0.559371
C 1.402258 0.079711 -0.332199
C 0.325127 1.20047 -0.229142
H -1.409848 1.701049 0.333703
H -0.34356 1.033391 1.502562
H -2.246964 -0.345015 1.02066
H 0.774525 -1.228482 1.335349
H 2.589184 -1.417891 0.497708
H 2.146661 0.227503 -1.125525
H 0.071173 1.207404 -1.371277
H 0.910624 2.110987 -0.089415
