14

O 1.604959 -1.296483 -0.246753
C 1.195307 1.053796 -0.26942
C 1.565106 -0.234009 0.344931
C -2.006841 -0.98595 0.185252
C -1.539471 0.122342 -0.389128
C -0.791783 1.184944 0.285125
H 1.624839 1.927522 0.232645
H 1.154015 1.131731 -1.349204
H 1.811766 -0.165976 1.42405
H -1.864627 -1.209855 1.258899
H -2.613874 -1.704564 -0.35498
H -1.789983 0.295241 -1.437881
H -0.713905 1.070207 1.350147
H -0.999064 2.202964 -0.042541
