14

O -0.592686 -1.392104 -0.349762
C -1.328033 0.850156 -0.208385
C -1.238139 -0.572941 0.253276
C 1.611799 -0.755259 0.290302
C 1.360969 0.410436 -0.26921
C 0.291694 1.332532 0.209056
H -1.599292 0.919932 -1.315345
H -2.053947 1.530467 0.334746
H -1.554151 -0.658826 1.288505
H 1.250111 -0.908393 1.304179
H 2.253566 -1.545359 -0.147962
H 1.565002 0.593003 -1.38199
H 0.40467 2.413677 -0.102374
H 0.223232 1.254669 1.302067
