14

O -1.626649 -1.21858 -0.28545
C -0.907723 1.139736 -0.102461
C -1.566791 -0.153502 0.380215
C 2.009737 -1.004188 0.18439
C 1.359727 -0.053969 -0.443677
C 0.646962 1.134589 0.188709
H -1.026207 1.12833 -1.208274
H -1.400805 1.999684 0.307958
H -2.028146 -0.009735 1.456068
H 2.136687 -1.010902 1.275657
H 2.576157 -1.778033 -0.374913
H 1.358812 -0.061734 -1.553093
H 1.04766 2.075679 -0.22032
H 0.80392 1.225333 1.298994
