14

O -0.876765 -1.330025 -0.077267
C -0.968468 1.054658 0.418466
C -1.415411 -0.231487 -0.297151
C 1.300118 -1.09168 0.358207
C 1.481366 0.111996 -0.316563
C 0.504823 1.334744 -0.115247
H -1.522195 2.002821 0.124754
H -0.952662 0.974111 1.537252
H -2.099362 -0.206442 -1.141271
H 0.862301 -1.2331 1.277482
H 1.944208 -1.941813 0.090253
H 2.214722 0.103208 -1.210642
H 0.549292 1.822078 -1.120197
H 0.844689 2.056453 0.738455
