14

O -0.85817 -1.382475 -0.09741
C -1.354514 0.825262 -0.382799
C -1.478608 -0.392834 0.297254
C 1.380048 -0.971282 -0.008273
C 1.546123 0.383345 -0.293064
C 0.835913 1.400119 0.423226
H -0.981826 0.668828 -1.437519
H -2.091294 1.639656 -0.083788
H -2.172203 -0.247571 1.193348
H 1.217158 -1.341757 1.055611
H 1.745457 -1.75332 -0.732797
H 1.948307 0.742681 -1.209065
H 0.795664 2.451651 0.068551
H 0.734056 1.485831 1.476227
