14

O -2.159899 -1.015825 -0.290299
C -0.820606 1.009521 -0.128641
C -1.443872 -0.295623 0.362244
C 2.266963 -0.904189 0.217111
C 1.410951 -0.058196 -0.434531
C 0.679072 1.112424 0.183081
H -1.033591 1.160408 -1.195795
H -1.243947 1.84606 0.464726
H -1.090212 -0.523549 1.447566
H 2.611752 -0.79824 1.270263
H 2.652665 -1.788807 -0.328204
H 1.115031 -0.26828 -1.531945
H 1.043806 2.061411 -0.257876
H 0.814259 1.255543 1.301861
