14

O -0.720129 -1.328622 -0.306871
C -1.487594 0.976313 -0.195554
C -1.269713 -0.335232 0.282274
C 1.274989 -1.034727 0.199993
C 1.381633 0.239144 -0.274375
C 0.823746 1.357681 0.207061
H -1.327232 1.143441 -1.270005
H -1.777457 1.786765 0.477847
H -1.435031 -0.343662 1.443184
H 0.969253 -1.287602 1.27441
H 1.662502 -1.952867 -0.265494
H 1.911585 0.328407 -1.21874
H 1.122676 2.307048 -0.390941
H 0.528783 1.526291 1.230164
