14

O -1.881656 1.130593 0.354129
C -1.414538 -1.18561 -0.422007
C -1.644391 0.039442 -0.029981
C 1.211202 1.293307 -0.154102
C 1.694418 0.069138 -0.391918
C 1.629249 -1.077417 0.565942
H -0.762355 -1.409756 -1.285846
H -1.866504 -2.025874 0.161469
H 1.042049 -1.957771 0.204036
H 0.676657 1.576002 0.753797
H 1.283689 2.104168 -0.884261
H 2.213428 -0.136704 -1.303826
H 1.195824 -0.742612 1.554221
H 2.657569 -1.451002 0.809718
