14

O -1.329369 -1.312106 -0.2842
C -0.952949 1.044346 -0.2273
C -1.522353 -0.261375 0.276926
C 1.874486 -0.945522 0.233575
C 1.414507 0.148948 -0.358889
C 0.524721 1.181095 0.274281
H -1.016563 1.076673 -1.313354
H -1.533621 1.900859 0.16851
H -2.059487 -0.24639 1.267703
H 1.655297 -1.206445 1.273767
H 2.546412 -1.637174 -0.280191
H 1.669123 0.309432 -1.425275
H 0.855738 2.188675 0.014509
H 0.514062 1.090164 1.364776
