14

O -1.236853 -1.257236 -0.326928
C -1.003562 1.192105 -0.147028
C -1.376048 -0.20842 0.315566
C 1.77622 -0.98895 0.310414
C 1.303026 0.003638 -0.471573
C 0.490549 1.147874 0.205571
H -1.233242 1.253962 -1.1687
H -1.693259 1.865936 0.353369
H -1.739577 -0.123651 1.399037
H 1.767668 -1.068078 1.353767
H 2.357247 -1.829976 -0.073916
H 1.189048 -0.086143 -1.653041
H 1.095588 2.100172 0.039669
H 0.640821 0.819665 1.329368
