14

O 0.696143 1.016886 -0.154686
C 2.159273 -0.924269 -0.230317
C 1.296762 -0.100632 0.434656
C -0.717103 1.13805 0.154215
C -1.579931 0.064688 -0.476153
C -1.830169 -1.143693 0.160659
H 2.376515 -0.676405 -1.2439
H 2.627391 -1.775674 0.267023
H 1.017038 -0.224298 1.49714
H -0.864389 1.245878 1.275618
H -0.921827 2.147622 -0.247713
H -1.847096 0.226424 -1.550941
H -2.400199 -1.960824 -0.297004
H -1.502975 -1.35432 1.242167
