14

O -0.632431 -1.262058 -0.185588
C -1.387587 1.00018 -0.376855
C -1.262679 -0.14243 0.328345
C 1.047587 -1.142701 0.098628
C 1.439654 0.203906 -0.314536
C 0.829438 1.23586 0.366323
H -1.010909 1.209909 -1.342022
H -1.967904 1.934738 -0.033936
H -1.911862 -0.39927 1.253479
H 1.047216 -1.359629 1.175925
H 1.393364 -1.927699 -0.536733
H 1.9425 0.312987 -1.283764
H 1.101054 2.252383 0.000763
H 0.386052 1.16477 1.419091
