14

O -0.888237 -1.0731 0.04669
C -1.484674 1.278153 0.036879
C -1.747242 -0.014047 -0.223458
C 0.352444 -0.845981 0.403515
C 1.285592 -0.024674 -0.482589
C 2.382134 0.588072 0.066414
H -0.568323 1.48683 0.586706
H -2.17967 2.109161 -0.194877
H -2.628807 -0.366334 -0.814485
H 0.383746 -0.376826 1.443077
H 0.878971 -1.86274 0.516008
H 1.047676 -0.139242 -1.599646
H 3.123959 1.081267 -0.513189
H 2.528536 0.727408 1.169748
