14

O -0.256113 -1.293311 -0.299355
C -1.503888 0.698832 -0.218397
C -1.270545 -0.589072 0.206444
C 1.127553 -0.89474 0.248878
C 1.29312 0.4725 -0.299485
C 0.655404 1.493069 0.280455
H -1.197681 1.01564 -1.200681
H -2.282167 1.392484 0.224111
H -1.744061 -0.9906 1.112494
H 1.133939 -0.99593 1.333408
H 1.736987 -1.686368 -0.136202
H 1.697178 0.579356 -1.3304
H 0.500866 2.493803 -0.149922
H 0.249567 1.39383 1.257746
