14

O -0.788013 -1.236648 -0.178431
C -0.963713 0.972706 0.493352
C -1.431761 -0.214561 -0.255189
C 1.238764 -1.015561 0.423118
C 1.477872 0.058943 -0.323582
C 0.520195 1.264822 -0.18796
H -1.702084 1.740238 0.27827
H -0.870933 0.822479 1.639145
H -2.165707 -0.024017 -1.131266
H 0.67672 -1.030277 1.289825
H 1.830823 -1.953791 0.371301
H 2.042277 -0.169552 -1.258195
H 0.387141 1.90617 -1.136246
H 0.908706 2.097242 0.522892
