14

O -1.144059 -1.372704 -0.363198
C -0.972064 1.007194 -0.146411
C -1.421627 -0.373817 0.287586
C 1.618346 -0.894884 0.296291
C 1.418819 0.233023 -0.363104
C 0.543691 1.288469 0.209101
H -1.121352 0.995858 -1.215345
H -1.668612 1.713026 0.334648
H -1.932926 -0.524856 1.299782
H 1.116206 -1.113002 1.226368
H 2.200567 -1.76254 -0.089965
H 1.859856 0.40979 -1.330212
H 0.844366 2.272153 -0.212205
H 0.673429 1.300258 1.298092
