14

O -0.925842 -1.1128 -0.143615
C -1.314504 1.375411 0.171337
C -1.525965 0.122024 -0.33191
C 0.495091 -1.08698 0.624045
C 1.418124 -0.327098 -0.308277
C 1.83839 0.911671 -0.1428
H -0.557355 1.597392 0.880903
H -2.044826 2.188032 0.116771
H -2.519941 0.029732 -0.852847
H 0.387227 -0.646464 1.573311
H 0.705747 -2.169145 0.751258
H 1.838486 -0.940937 -1.147257
H 2.489427 1.424829 -0.866258
H 1.539235 1.478966 0.696034
