14

O -1.141867 -1.367872 -0.154182
C -1.203854 0.941013 -0.383923
C -1.409004 -0.291485 0.31756
C 1.490034 -0.994894 0.043584
C 1.433612 0.272271 -0.30646
C 0.780496 1.309331 0.418769
H -0.857765 0.823501 -1.447752
H -1.714135 1.812291 -0.052654
H -1.515318 0.01472 1.416309
H 1.289892 -1.562777 1.007232
H 2.218843 -1.636516 -0.664571
H 1.854313 0.496013 -1.266048
H 0.814139 2.265405 0.047291
H 0.66496 1.27594 1.501514
