14

O 0.404761 0.830811 -0.444547
C 1.72543 -0.847806 0.57164
C 1.450657 -0.084271 -0.466676
C -0.294524 0.983061 0.283472
C -1.560778 0.09762 0.355141
C -1.718245 -0.950071 -0.441895
H 1.206923 -0.900879 1.527607
H 2.616795 -1.443366 0.469175
H 2.007676 0.031273 -1.418232
H 0.054767 0.967438 1.392142
H -0.835332 2.013406 0.176975
H -2.246607 0.372392 1.136499
H -2.563859 -1.576531 -0.365471
H -1.021867 -1.258319 -1.214515
