14

O -0.644611 -1.036884 -0.237349
C -1.684239 1.027147 -0.398978
C -1.224462 -0.031446 0.372026
C 0.752349 -1.241977 0.139185
C 1.40693 0.018754 -0.335001
C 1.36631 1.134206 0.38571
H -1.55166 1.147064 -1.571707
H -2.253059 1.793204 0.116574
H -1.191508 -0.042624 1.616145
H 0.895961 -1.53352 1.243006
H 1.178759 -2.095188 -0.454955
H 1.705442 0.147258 -1.395741
H 1.698683 2.082687 -0.056907
H 0.919236 1.368472 1.3037
