14

O -0.908495 -1.279571 -0.156498
C -1.449982 0.964734 -0.374185
C -1.323994 -0.219874 0.386436
C 1.428737 -1.061502 0.084867
C 1.36608 0.218144 -0.434822
C 0.951139 1.263434 0.405834
H -1.427108 0.929805 -1.477165
H -2.042821 1.796758 -0.078728
H -1.564798 -0.139854 1.436877
H 1.446812 -1.241654 1.141092
H 1.767709 -2.026479 -0.34079
H 1.428423 0.408639 -1.497173
H 1.048018 2.374021 0.119007
H 0.686084 1.04544 1.464244
