14

O 0.650335 -1.162815 -0.321022
C -1.458385 -0.221788 -0.24555
C -0.54281 -1.224424 0.180189
C 1.47395 0.116047 0.238969
C 0.677859 1.214076 -0.208936
C -0.694455 1.206968 0.27763
H -1.550342 -0.051832 -1.324905
H -2.440827 -0.213223 0.23067
H -0.626044 -1.589667 1.217479
H 1.449868 -0.055662 1.314944
H 2.505856 -0.043718 -0.144695
H 0.839179 1.563205 -1.218648
H -1.301878 2.015466 -0.119998
H -0.739899 1.16285 1.357679
