14

O -0.478119 -1.289491 -0.241156
C -1.514452 0.835628 -0.311485
C -1.302687 -0.356645 0.276895
C 1.04523 -1.023312 0.155292
C 1.40153 0.336474 -0.29641
C 0.875903 1.396834 0.340765
H -1.164533 0.992322 -1.334848
H -2.172746 1.576396 0.126455
H -1.683252 -0.560389 1.296622
H 1.076274 -1.174163 1.240043
H 1.535559 -1.840071 -0.369014
H 1.759757 0.424642 -1.316536
H 0.900178 2.396471 -0.091734
H 0.510931 1.316177 1.367262
