14

O -0.878092 -0.906524 -0.374132
C -2.649946 0.587566 0.244981
C -1.37386 0.32607 -0.280719
C 0.819317 -0.972264 0.444161
C 1.82997 -0.15511 -0.254352
C 2.308848 1.044138 0.131837
H -3.411223 -0.165542 0.766351
H -2.982634 1.651692 0.323035
H -0.751829 1.221365 -0.714156
H 0.397318 -0.608067 1.410264
H 0.87498 -2.07501 0.368323
H 2.373668 -0.759349 -1.122184
H 3.069028 1.473078 -0.528607
H 1.860663 1.687691 0.916994
