14

O -0.658176 -1.38995 -0.334869
C -1.42248 0.776324 -0.223634
C -1.312918 -0.535159 0.262232
C 1.433056 -0.836024 0.22533
C 1.456204 0.431617 -0.216929
C 0.590932 1.435369 0.264481
H -1.168832 0.747509 -1.302635
H -2.010935 1.506424 0.210674
H -1.798072 -0.67777 1.212783
H 1.201748 -1.217653 1.197171
H 2.080729 -1.484742 -0.403948
H 1.511425 0.568629 -1.296678
H 0.54146 2.329177 -0.385456
H 0.424636 1.806607 1.379461
