14

O 0.770518 -1.269776 -0.004605
C 1.477385 0.932287 0.358574
C 1.379465 -0.182762 -0.404856
C -1.152793 -1.045326 0.399032
C -1.461212 0.071765 -0.341062
C -1.065697 1.35693 -0.049553
H 1.128298 0.964726 1.383517
H 2.060112 1.779092 0.014928
H 1.680667 -0.14036 -1.44595
H -1.479685 -2.006577 0.055646
H -0.942785 -0.973726 1.451933
H -1.83794 -0.116907 -1.382273
H -1.085039 2.244032 -0.749833
H -0.762179 1.629125 0.957864
