14

O -0.704409 -1.17412 -0.286162
C -1.466504 1.048937 -0.2
C -1.573142 -0.266663 0.260863
C 0.617868 -0.995671 0.281793
C 1.273374 0.126401 -0.450704
C 1.790567 1.19021 0.292766
H -0.892473 1.289444 -1.114357
H -2.132062 1.670389 0.304967
H -2.315587 -0.687763 1.113736
H 0.816937 -0.853687 1.334489
H 1.135347 -1.976358 0.109961
H 1.512706 0.103776 -1.486354
H 2.314601 1.928377 -0.348052
H 1.564033 1.343076 1.303321
