14

O -0.559842 -1.016344 -0.317271
C -1.113013 1.087132 0.478815
C -1.448115 0.022855 -0.265051
C 0.278776 -1.204571 0.215176
C 1.485206 -0.089099 0.146224
C 1.290718 1.122943 -0.392688
H -0.342225 1.267311 1.183295
H -1.871819 1.864201 0.506689
H -2.329671 -0.131147 -0.852691
H 0.205921 -1.301229 1.336923
H 0.84953 -2.187691 -0.000475
H 2.362557 -0.330978 0.756856
H 2.129924 1.824412 -0.450836
H 0.543091 1.44123 -1.074428
