14

O -0.590246 -1.24746 -0.236869
C -1.524969 0.958604 -0.285264
C -1.391137 -0.248909 0.279811
C 0.797647 -1.090666 0.145145
C 1.447703 0.188585 -0.314785
C 1.235715 1.337698 0.321008
H -1.028571 1.240516 -1.211933
H -2.099142 1.754537 0.227814
H -1.93955 -0.47116 1.215588
H 0.846305 -1.190566 1.215915
H 1.341543 -1.962728 -0.26123
H 1.94314 0.147325 -1.285837
H 1.559792 2.265897 -0.126519
H 0.813316 1.393206 1.299714
