14

O 0.649141 1.466642 0.273412
C 0.977138 -0.964667 -0.092235
C 1.296501 0.602126 -0.330212
C -1.775891 0.671027 -0.016588
C -1.209165 -0.511207 -0.247086
C -0.017058 -1.150619 0.402203
H 1.065076 -1.374164 -1.099411
H 1.873821 -1.263603 0.446918
H 2.25736 0.873391 -0.928119
H -1.532946 1.327703 0.83471
H -2.556525 0.982288 -0.672779
H -1.588329 -1.200235 -1.045168
H -0.222646 -2.234514 0.56613
H -0.225449 -0.796485 1.448729
