14

O -1.797417 -1.325207 -0.004413
C -1.198824 0.988093 -0.470834
C -1.861244 -0.146485 0.259822
C 2.008314 -1.086646 -0.089698
C 1.913136 0.305798 -0.263717
C 0.965908 1.124155 0.527243
H -0.910466 0.7994 -1.54504
H -1.681684 1.948924 -0.167661
H -2.350945 0.164305 1.267127
H 1.49871 -1.57725 0.721963
H 2.714704 -1.612459 -0.76904
H 2.307343 0.816098 -1.129231
H 0.910477 2.208183 0.214027
H 0.613809 0.859198 1.506789
