14

O -1.090245 1.024675 -0.063925
C 1.347675 0.392842 -0.179571
C 0.147854 1.295889 -0.045628
C -1.37162 -0.487819 0.128548
C -0.287769 -1.366344 -0.18231
C 1.103582 -0.9072 0.292986
H 1.612309 0.421013 -1.232408
H 2.170551 0.919808 0.376962
H 0.35306 2.33415 0.254949
H -1.528128 -0.437653 1.206173
H -2.219971 -0.645432 -0.48288
H -0.146929 -1.881207 -1.148038
H 1.93114 -1.638018 -0.009035
H 1.115304 -0.735712 1.353874
