14

O -0.669835 -0.980996 -0.324905
C -2.222885 0.908574 -0.302732
C -1.356218 0.005466 0.342419
C 0.67892 -1.095178 0.207009
C 1.546356 -0.01884 -0.358914
C 2.013655 1.068668 0.342625
H -2.337385 1.069577 -1.47736
H -2.797049 1.602061 0.300071
H -1.301675 -0.121211 1.484524
H 0.663609 -1.058899 1.287842
H 1.117368 -2.084364 -0.058494
H 1.610237 0.050089 -1.512644
H 2.489375 1.860966 -0.194556
H 1.816066 1.311215 1.412091
