14

O 0.530944 -0.785363 0.159101
C 2.484143 0.689332 -0.018248
C 1.839353 -0.445393 -0.219426
C -0.298309 0.25303 0.173411
C -1.749533 -0.356928 0.028763
C -2.884521 0.444612 -0.145785
H 2.020168 1.638831 0.276733
H 3.573729 0.745601 -0.347228
H 2.283487 -1.348684 -0.534312
H -0.044589 0.933188 1.076417
H -0.122675 0.862655 -0.847258
H -1.620207 -1.603238 0.228702
H -3.789374 -0.242099 -0.34632
H -2.845289 1.658197 -0.326699
