14

O 0.60122 1.394085 0.257037
C 0.948128 -0.859392 -0.12309
C 1.311347 0.588871 -0.273075
C -1.737997 0.725102 -0.040133
C -1.250182 -0.547736 -0.202665
C 0.004327 -1.170975 0.4127
H 1.095446 -1.297869 -1.158421
H 1.818925 -1.335097 0.299193
H 2.1757 0.839075 -0.983985
H -1.424011 1.350352 0.733081
H -2.429898 1.03423 -0.790105
H -1.468684 -1.082057 -1.164429
H -0.088252 -2.26865 0.719598
H -0.004189 -0.759371 1.42988
