14

O -0.676959 -1.355535 -0.233882
C -1.424358 0.873562 -0.290111
C -1.359958 -0.418525 0.248314
C 1.382906 -0.942074 0.185706
C 1.359477 0.334851 -0.321192
C 0.775391 1.391169 0.328613
H -1.287304 1.021628 -1.358601
H -2.061826 1.584524 0.301148
H -1.757399 -0.485227 1.276282
H 1.199565 -1.155888 1.244497
H 1.850017 -1.789144 -0.320782
H 1.613393 0.478001 -1.395135
H 0.821959 2.391774 -0.108772
H 0.600499 1.374461 1.38925
