14

O -0.891632 -0.784401 -0.408152
C -2.874468 0.467437 0.032283
C -1.524726 0.302059 -0.064002
C 0.99183 -0.896585 0.638332
C 1.770502 -0.13247 -0.392973
C 2.566626 0.913422 0.072453
H -3.628454 -0.321405 -0.121515
H -3.096035 1.579554 0.387608
H -0.872418 1.274955 0.069705
H 0.705567 -0.386575 1.549095
H 0.945287 -1.943345 0.610226
H 1.770287 -0.502394 -1.465491
H 3.332928 1.37468 -0.507386
H 2.673982 1.287582 1.199241
