14

O -0.365513 -1.404424 -0.152682
C -1.493479 0.560132 -0.388639
C -1.22364 -0.663647 0.254751
C 1.494378 -0.699668 0.100769
C 1.336823 0.662766 -0.23609
C 0.331046 1.462797 0.349125
H -1.216057 0.64869 -1.433161
H -2.269375 1.264113 0.072678
H -1.812157 -0.941791 1.13235
H 1.377117 -1.16803 1.077985
H 1.975178 -1.364882 -0.603115
H 1.813676 0.980867 -1.151301
H 0.31248 2.51348 0.079879
H 0.183589 1.181716 1.439665
