14

O 0.457476 -0.966721 -0.079605
C 2.037207 0.967433 0.050946
C 1.626007 -0.311855 -0.376128
C -0.329083 -0.641951 0.46486
C -1.201798 0.627226 0.02311
C -2.525515 0.296903 -0.249176
H 1.354682 1.746174 0.404327
H 3.049727 1.369883 -0.122337
H 2.407297 -1.134938 -0.669489
H -1.031451 -1.592064 0.761855
H -0.03111 -0.148115 1.46635
H -0.809245 1.680384 -0.187817
H -3.261984 1.190401 -0.459942
H -2.838354 -0.885305 -0.095651
