14

O -0.890645 -1.340315 -0.352684
C -1.333437 0.997793 -0.126353
C -1.386846 -0.430094 0.342073
C 1.214698 -1.044799 0.274677
C 1.357613 0.21388 -0.371512
C 1.046018 1.481288 0.191618
H -1.307605 1.116743 -1.181939
H -1.811133 1.814522 0.441182
H -1.637257 -0.48631 1.463965
H 0.914085 -1.233783 1.270584
H 1.701394 -1.932673 -0.189881
H 1.789146 0.140711 -1.43955
H 1.142226 2.354243 -0.5071
H 1.033609 1.640588 1.31739
