14

O -0.779857 -1.43869 -0.32434
C -1.123174 0.949554 -0.155462
C -1.344491 -0.505549 0.208554
C 1.615345 -0.809784 0.278975
C 1.344536 0.339303 -0.323784
C 0.362587 1.337128 0.234519
H -1.236368 1.063937 -1.259832
H -1.834628 1.61497 0.358669
H -2.042618 -0.681112 1.094458
H 1.263366 -0.997329 1.300699
H 2.217653 -1.601858 -0.134156
H 1.742593 0.516835 -1.30628
H 0.533865 2.319641 -0.175512
H 0.373848 1.466112 1.328722
