14

O -0.566416 -1.23009 -0.387666
C -1.62424 0.926869 -0.135791
C -1.499995 -0.339907 0.235358
C 0.821939 -1.080719 0.303538
C 1.581131 0.20522 -0.290491
C 1.28073 1.416642 0.192586
H -0.866578 1.360267 -0.902751
H -2.349282 1.58047 0.275541
H -1.99738 -0.90014 1.037762
H 0.659666 -0.983607 1.357597
H 1.318145 -2.017643 0.014305
H 2.2508 0.149579 -1.177678
H 1.551539 2.342645 -0.268522
H 0.747167 1.511881 1.097175
