14

O -0.529442 -1.43627 -0.143782
C -1.378365 0.795562 -0.342949
C -1.306284 -0.408088 0.222752
C 1.211787 -0.906824 0.079763
C 1.331375 0.414455 -0.29167
C 0.741738 1.434529 0.400989
H -1.10194 0.889491 -1.419102
H -2.089346 1.543615 0.046706
H -1.914472 -0.580992 1.200422
H 1.128346 -1.216655 1.158272
H 1.735719 -1.633858 -0.546837
H 1.369574 0.70778 -1.424461
H 0.767023 2.481533 0.005684
H 0.675794 1.511138 1.490021
