14

O -0.940676 -1.094563 -0.002693
C -1.313803 1.277191 0.012093
C -1.692876 0.018599 -0.13315
C 0.341476 -0.898039 0.365523
C 1.346131 -0.132233 -0.480263
C 2.179291 0.712097 0.110113
H -0.201738 1.602718 0.041662
H -2.059986 2.00341 -0.037033
H -2.741332 -0.25726 -0.317158
H 0.315919 -0.460091 1.380903
H 0.749663 -1.892607 0.497554
H 1.410162 -0.323164 -1.522191
H 2.943792 1.309356 -0.495482
H 2.189999 1.074995 1.134108
