14

O 1.947854 -1.214216 -0.251021
C 0.936848 1.071355 -0.087847
C 1.720208 -0.078788 0.380081
C -2.228607 -0.979664 0.09999
C -1.448397 -0.05753 -0.401048
C -0.808886 1.13483 0.169159
H 1.152237 2.054835 0.382011
H 0.82455 1.051745 -1.265653
H 2.041921 0.078544 1.66921
H -2.563958 -1.039046 1.216815
H -2.521092 -1.814056 -0.605395
H -1.194682 -0.273577 -1.44847
H -0.940887 1.178266 1.230366
H -1.145125 2.179331 -0.115947
