14

O -0.862998 -1.1371 -0.230675
C -1.301032 1.232943 0.29569
C -1.506734 0.050284 -0.305148
C 0.544063 -1.03667 0.55843
C 1.404255 -0.27148 -0.310564
C 1.727867 1.030667 -0.101055
H -0.644822 1.368691 1.118331
H -1.970802 2.027777 -0.015858
H -2.349328 -0.046958 -0.981412
H 0.317658 -0.664556 1.566998
H 0.796185 -2.101731 0.62938
H 1.688796 -0.776467 -1.205229
H 2.279924 1.663717 -0.800931
H 1.434335 1.524407 0.833147
