14

O 0.694959 -1.27887 -0.000545
C 1.524888 0.96682 0.346732
C 1.402945 -0.15225 -0.374133
C -1.103033 -1.119978 0.38574
C -1.489386 0.0769 -0.347701
C -1.048039 1.356969 -0.051685
H 1.26746 1.080723 1.415793
H 2.069689 1.779384 -0.065648
H 1.690287 -0.131453 -1.391268
H -1.54081 -2.103059 0.039431
H -1.008639 -0.941441 1.471599
H -1.917745 0.057081 -1.396965
H -1.203109 2.134061 -0.739154
H -0.661878 1.708047 0.944807
