14

O 2.333483 0.890851 -0.10914
C 0.643486 -0.845893 0.577074
C 1.673945 -0.102567 -0.338823
C -1.748796 1.300524 0.237828
C -1.928948 0.066455 -0.239659
C -0.969316 -1.134948 -0.165178
H 0.899476 -1.876132 0.827218
H 0.570777 -0.378218 1.498262
H 1.875189 -0.529587 -1.325555
H -0.891593 1.880904 0.698014
H -2.68901 2.021284 0.391797
H -2.978082 -0.200698 -0.62239
H -0.832774 -1.497951 -1.27039
H -1.305496 -2.043955 0.401551
