14

O -0.648916 -1.092627 -0.329031
C -1.549418 1.129367 -0.129834
C -1.524989 -0.213683 0.282959
C 0.692055 -1.105961 0.264725
C 1.464611 -0.012181 -0.366814
C 1.544669 1.198833 0.153417
H -0.903083 1.728268 -0.919476
H -2.188581 1.735266 0.52858
H -2.252588 -0.797086 1.140529
H 0.616528 -0.879058 1.359395
H 1.075126 -2.148518 0.223801
H 1.868768 -0.278924 -1.406738
H 2.088872 1.980916 -0.363254
H 1.003936 1.497193 1.071699
