14

O -0.912455 -1.096929 0.097875
C -1.265854 1.344801 -0.044529
C -1.711868 0.07343 -0.109226
C 0.437637 -1.067243 0.308552
C 1.330481 -0.16394 -0.555391
C 2.061702 0.779932 0.157942
H -0.188934 1.678157 0.025655
H -1.942994 2.248158 -0.380002
H -2.693534 -0.276413 -0.459768
H 0.466675 -0.705767 1.331253
H 0.793498 -2.039186 0.559126
H 1.228895 -0.244126 -1.687672
H 2.792175 1.549867 -0.289596
H 1.85671 0.909212 1.277719
