14

O -0.34355 -0.430307 -0.420017
C -2.435071 0.539554 -0.117131
C -1.348448 0.033671 0.436151
C 0.451316 -1.042327 -0.156815
C 1.816446 -0.212467 -0.031269
C 1.84381 1.16743 0.208093
H -2.406337 0.583929 -1.296015
H -3.289878 0.787082 0.410774
H -1.047659 -0.042131 1.668568
H 0.408393 -1.615992 0.915257
H 0.695904 -1.970463 -0.817606
H 2.829847 -0.744951 -0.031476
H 2.792849 1.804796 0.408977
H 0.95365 1.824937 0.064655
