14

O -1.034698 -1.372326 -0.443011
C -1.022939 0.986335 -0.062662
C -1.318042 -0.430761 0.246367
C 1.53543 -0.890543 0.366069
C 1.404562 0.20366 -0.34591
C 0.511923 1.353096 0.132831
H -1.375753 1.223324 -1.090922
H -1.631338 1.548249 0.773186
H -1.703881 -0.544075 1.35683
H 1.161273 -0.802598 1.419202
H 2.019306 -1.860955 0.014481
H 1.609964 0.179756 -1.416489
H 0.735601 2.350378 -0.361296
H 0.543259 1.630396 1.25343
