14

O -0.626722 -1.026949 -0.192413
C -1.924266 1.082783 0.108691
C -1.66813 -0.127732 -0.308051
C 0.417741 -0.774984 0.548413
C 1.238294 0.426215 0.15423
C 2.496113 0.352122 -0.376951
H -1.420106 1.699593 0.879967
H -2.916804 1.334724 -0.377129
H -2.288258 -0.546187 -1.205233
H 0.189627 -0.661823 1.709461
H 1.093977 -1.680007 0.269698
H 0.752115 1.427393 0.083103
H 3.070592 1.316023 -0.530048
H 3.160941 -0.491647 -0.419135
