14

O -1.123089 -1.407811 -0.195432
C -1.016178 1.013073 -0.268076
C -1.521965 -0.332426 0.212739
C 1.792399 -0.925283 0.162398
C 1.487254 0.252874 -0.31401
C 0.428131 1.244769 0.303868
H -1.020425 1.061704 -1.345119
H -1.713384 1.868841 0.040984
H -2.23808 -0.225316 1.140516
H 1.234007 -1.416735 0.957639
H 2.764374 -1.381279 -0.29988
H 2.081663 0.594914 -1.202439
H 0.692072 2.365205 0.162154
H 0.262147 1.048775 1.420575
