14

O -1.047069 -1.312635 -0.053942
C -1.273643 1.160926 0.657763
C -1.687784 -0.129845 -0.07281
C 1.971658 -0.830233 0.525087
C 1.118522 -0.231969 -0.403353
C 0.804381 1.149165 -0.65143
H -1.891603 2.12685 0.570112
H -0.739776 0.903072 1.676102
H -2.601388 0.226873 -0.757377
H 2.546252 -0.311563 1.25609
H 2.118394 -1.969602 0.524709
H 0.710424 -0.832181 -1.390424
H 0.649689 1.682845 -1.753042
H 1.35143 1.891153 0.009591
