14

O -0.63091 -0.976461 -0.164298
C -2.209255 0.938462 0.003692
C -1.812502 -0.302721 -0.365026
C 0.48679 -0.25414 0.782769
C 1.76619 -0.315493 0.045091
C 2.452172 0.754264 -0.400749
H -1.652353 1.698139 0.54567
H -3.265224 1.209919 -0.165077
H -2.490415 -1.038144 -0.884611
H 0.213013 0.767308 1.029078
H 0.448873 -0.94342 1.641612
H 2.159506 -1.340308 -0.122915
H 3.438185 0.599099 -0.783939
H 2.145398 1.791661 -0.279902
