14

O 0.6412 0.879946 -0.173424
C 2.30231 -0.934782 -0.250815
C 1.402362 -0.121062 0.558284
C -0.703603 1.129451 0.258998
C -1.648797 0.21697 -0.517961
C -2.005352 -1.120557 0.015188
H 2.500437 -0.765516 -1.450581
H 2.930736 -1.624992 0.359064
H 1.243603 -0.065436 1.80969
H -0.764531 1.103492 1.315249
H -0.876079 2.233408 0.109544
H -1.827083 0.423549 -1.568828
H -2.434128 -1.881822 -0.554207
H -1.522207 -1.464496 1.095702
