14

O 0.671856 -1.038111 -0.310309
C 0.966136 1.224213 0.516714
C 1.368542 0.146979 -0.174489
C -0.206032 -1.217899 0.194734
C -1.367662 -0.180838 0.137435
C -1.35413 1.022132 -0.461462
H 0.128756 1.31435 1.221342
H 1.847583 2.005704 0.41291
H 2.366867 0.130177 -0.635773
H -0.782124 -2.082137 -0.264704
H -0.272994 -1.553293 1.254005
H -2.243556 -0.650517 0.635444
H -2.265674 1.725761 -0.506764
H -0.523975 1.329815 -1.090127
