14

O 0.666924 0.901614 -0.24617
C 2.226192 -0.824981 -0.151389
C 1.26572 -0.151938 0.415437
C -0.683558 1.082695 0.240665
C -1.549842 0.154461 -0.472137
C -1.910781 -1.074509 0.092693
H 2.595585 -0.848403 -1.237159
H 2.71068 -1.506925 0.450267
H 0.94185 -0.295411 1.509729
H -0.527719 0.795409 1.378749
H -0.925335 2.209612 0.314779
H -1.720982 0.464476 -1.597082
H -2.369789 -1.804845 -0.495003
H -1.907166 -1.499513 1.183548
