14

O 0.652452 1.071184 -0.143598
C 2.14362 -0.958351 -0.241248
C 1.479881 0.081154 0.407924
C -0.716446 0.97286 0.26007
C -1.398032 -0.080628 -0.501266
C -2.133695 -1.003109 0.091311
H 2.230131 -1.085614 -1.389401
H 2.739901 -1.632251 0.307899
H 1.429549 -0.034186 1.504987
H -0.658462 0.749878 1.328805
H -1.143474 1.988925 0.057651
H -1.252942 -0.058887 -1.559091
H -2.679145 -1.803897 -0.29668
H -2.01925 -1.131197 1.155452
