14

O -1.022942 -1.265538 -0.216793
C -1.471452 1.038913 -0.288031
C -1.384907 -0.21401 0.339632
C 1.614871 -1.05494 0.167009
C 1.369499 0.151069 -0.423443
C 0.849838 1.215445 0.326693
H -1.347166 1.083309 -1.397957
H -1.832457 1.91728 0.24605
H -1.639057 -0.26642 1.461522
H 1.34275 -1.299316 1.206738
H 2.03636 -1.883024 -0.458339
H 1.683216 0.241455 -1.46567
H 1.083952 2.203373 -0.002916
H 0.777541 1.02263 1.392482
