14

O 0.676941 -0.955652 -0.062692
C 1.795596 1.202725 0.06724
C 1.810744 -0.098495 -0.15155
C -0.24253 -0.764741 0.368089
C -1.399916 -0.043024 -0.422069
C -2.524328 0.557385 0.069499
H 0.874924 1.736252 0.341423
H 2.709568 1.848596 0.060086
H 2.630005 -0.653525 -0.515166
H -0.770028 -1.686893 0.682391
H -0.246373 -0.27162 1.44787
H -1.178894 0.02314 -1.510351
H -3.204127 0.930445 -0.67539
H -2.810947 0.667082 1.134097
