14

O 0.309695 -1.16599 -0.389309
C 1.213687 0.853654 0.591103
C 1.308348 -0.25146 -0.186309
C -0.815192 -1.100838 0.337258
C -1.38069 0.34494 0.091883
C -0.661263 1.219445 -0.585273
H 0.669207 0.924687 1.619843
H 2.160469 1.435387 0.728333
H 2.067608 -0.40883 -0.997031
H -1.592179 -1.932445 0.112166
H -0.638525 -1.149739 1.448685
H -1.977389 0.680744 0.949004
H -0.765984 2.336738 -0.367567
H -0.068971 0.931544 -1.506451
