14

O -0.590165 0.787787 -0.365328
C -2.453416 -0.813134 -0.196144
C -1.510754 -0.068167 0.520834
C 0.588398 0.896731 0.459242
C 1.599596 0.170069 -0.508711
C 2.320408 -0.926739 -0.038439
H -2.632693 -0.922881 -1.615076
H -3.132638 -1.307831 0.864764
H -1.455204 0.077073 2.093286
H 0.952865 2.054691 0.582311
H 0.449057 0.374242 1.48065
H 1.803632 0.726812 -1.626898
H 3.045306 -1.40329 -0.596797
H 2.304627 -1.49225 1.037485
