14

O -0.353463 -0.334125 -0.382439
C -2.623553 0.495764 -0.076161
C -1.525999 -0.130466 0.358601
C 0.469196 -0.908923 -0.143633
C 1.909527 -0.196922 0.171583
C 2.091039 1.134724 0.019224
H -2.649082 0.983219 -1.005656
H -3.427255 0.740685 0.629317
H -1.328716 -0.689501 1.235342
H 0.410554 -1.586572 0.766927
H 0.930645 -1.701407 -0.93876
H 2.7025 -0.884409 0.460273
H 3.131126 1.422933 0.055979
H 1.281691 1.818029 -0.14272
