14

O -0.440913 -1.384174 -0.295207
C -1.411356 0.800285 -0.179028
C -1.326353 -0.526856 0.219028
C 1.107877 -0.933438 0.21918
C 1.452027 0.421841 -0.252538
C 0.669824 1.495588 0.207114
H -1.201369 1.113458 -1.187229
H -2.02895 1.47594 0.471545
H -1.547983 -0.57902 1.281347
H 1.018144 -0.926724 1.311921
H 1.479957 -1.821884 -0.426881
H 1.815715 0.500712 -1.344818
H 0.619018 2.472002 -0.174458
H 0.327222 1.467973 1.254493
