14

O -1.112712 -1.368009 0.400955
C -1.02994 0.965861 -0.299913
C -1.566175 -0.432387 -0.252381
C 1.812916 -0.860628 -0.176596
C 1.520431 0.451923 -0.203546
C 0.490922 1.132475 0.544341
H -0.980745 1.232182 -1.400955
H -1.804179 1.579059 0.212047
H -2.510061 -0.589027 -0.799896
H 1.274534 -1.520132 0.515656
H 2.491543 -1.230021 -0.904215
H 2.122273 1.087672 -0.909651
H 0.665633 2.210331 0.708587
H 0.334725 0.599595 1.504711
