14

O -1.243727 -1.220361 -0.001561
C -0.855982 1.015308 0.450259
C -1.854691 -0.085608 -0.052813
C 2.104444 -0.697081 0.43168
C 1.282894 -0.281524 -0.502657
C 0.519084 1.064549 -0.407248
H -1.50382 2.03457 0.695686
H -0.725669 0.733563 1.509712
H -3.05278 0.214803 -0.52643
H 2.061727 -0.043865 1.496291
H 2.658402 -1.709895 0.446303
H 1.068639 -0.729392 -1.647828
H 0.396335 1.525504 -1.422215
H 1.160491 1.783416 0.222927
