17
e2ts_A_A_A_A_G_F.xyz_/home/stefan/PhD/projects/reactions/sn_e/data_set/coords/E.xyz_/home/stefan/PhD/projects/reactions/sn_e/data_set/coords/B.xyz_/home/stefan/PhD/projects/reactions/sn_e/data_set/coords/D.xyz_/home/stefan/PhD/projects/reactions/sn_e/data_set/coords/C.xyz
C         -0.16387        0.00000       -0.28450
C         -0.15210        0.00000        1.17814
Br         1.53938       -0.00000       -1.19589
Br         -2.69601       -0.00000        1.17164
H         -1.47356        0.00000        1.32401
N         -0.79824       -1.19925       -0.85044
H         -1.78959       -1.09836       -0.63265
H         -0.44418       -2.05973       -0.43256
N         -0.79823        1.19925       -0.85044
O         -0.31055        2.24595       -0.55227
O         -1.70411        1.16260       -1.62528
C          0.51291        1.26060        1.76145
H         -0.13749        2.10782        1.82542
H          0.88680        1.02362        2.73559
H          1.33142        1.48764        1.11076
C          0.48268       -1.20330        1.73493
N          0.88858       -2.18675        2.18999
